┌ Info: 2023-01-11T10:55:44.571 [5069:1]: The PSS(R)E parser currently supports buses, loads, shunts, generators, branches, transformers, and dc lines
└ @ PowerSystems /Users/rithwikmylavarapu/.julia/packages/PowerSystems/KIUFb/src/parsers/pm_io/common.jl:25
┌ Info: 2023-01-11T10:55:44.572 [5069:1]: The PSS(R)E parser currently supports buses, loads, shunts, generators, branches, transformers, and dc lines
└ @ PowerSystems /Users/rithwikmylavarapu/.julia/packages/PowerSystems/KIUFb/src/parsers/pm_io/psse.jl:1063
┌ Info: 2023-01-11T10:55:44.576 [5069:1]: The following fields in BUS are missing: NVHI, NVLO, EVHI, EVLO
└ @ PowerSystems /Users/rithwikmylavarapu/.julia/packages/PowerSystems/KIUFb/src/parsers/pm_io/pti.jl:1227
┌ Info: 2023-01-11T10:55:44.577 [5069:1]: The following fields in BUS are missing: NVHI, NVLO, EVHI, EVLO
└ @ PowerSystems /Users/rithwikmylavarapu/.julia/packages/PowerSystems/KIUFb/src/parsers/pm_io/pti.jl:1227
┌ Info: 2023-01-11T10:55:44.577 [5069:1]: The following fields in BUS are missing: NVHI, NVLO, EVHI, EVLO
└ @ PowerSystems /Users/rithwikmylavarapu/.julia/packages/PowerSystems/KIUFb/src/parsers/pm_io/pti.jl:1227
┌ Info: 2023-01-11T10:55:44.577 [5069:1]: The following fields in BUS are missing: NVHI, NVLO, EVHI, EVLO
└ @ PowerSystems /Users/rithwikmylavarapu/.julia/packages/PowerSystems/KIUFb/src/parsers/pm_io/pti.jl:1227
┌ Info: 2023-01-11T10:55:44.577 [5069:1]: The following fields in BUS are missing: NVHI, NVLO, EVHI, EVLO
└ @ PowerSystems /Users/rithwikmylavarapu/.julia/packages/PowerSystems/KIUFb/src/parsers/pm_io/pti.jl:1227
┌ Info: 2023-01-11T10:55:44.577 [5069:1]: The following fields in BUS are missing: NVHI, NVLO, EVHI, EVLO
└ @ PowerSystems /Users/rithwikmylavarapu/.julia/packages/PowerSystems/KIUFb/src/parsers/pm_io/pti.jl:1227
┌ Info: 2023-01-11T10:55:44.577 [5069:1]: The following fields in BUS are missing: NVHI, NVLO, EVHI, EVLO
└ @ PowerSystems /Users/rithwikmylavarapu/.julia/packages/PowerSystems/KIUFb/src/parsers/pm_io/pti.jl:1227
┌ Info: 2023-01-11T10:55:44.577 [5069:1]: The following fields in BUS are missing: NVHI, NVLO, EVHI, EVLO
└ @ PowerSystems /Users/rithwikmylavarapu/.julia/packages/PowerSystems/KIUFb/src/parsers/pm_io/pti.jl:1227
┌ Info: 2023-01-11T10:55:44.577 [5069:1]: The following fields in BUS are missing: NVHI, NVLO, EVHI, EVLO
└ @ PowerSystems /Users/rithwikmylavarapu/.julia/packages/PowerSystems/KIUFb/src/parsers/pm_io/pti.jl:1227
┌ Info: 2023-01-11T10:55:44.577 [5069:1]: The following fields in BUS are missing: NVHI, NVLO, EVHI, EVLO
└ @ PowerSystems /Users/rithwikmylavarapu/.julia/packages/PowerSystems/KIUFb/src/parsers/pm_io/pti.jl:1227
┌ Info: 2023-01-11T10:55:44.577 [5069:1]: The following fields in BUS are missing: NVHI, NVLO, EVHI, EVLO
└ @ PowerSystems /Users/rithwikmylavarapu/.julia/packages/PowerSystems/KIUFb/src/parsers/pm_io/pti.jl:1227
┌ Info: 2023-01-11T10:55:44.577 [5069:1]: The following fields in BUS are missing: NVHI, NVLO, EVHI, EVLO
└ @ PowerSystems /Users/rithwikmylavarapu/.julia/packages/PowerSystems/KIUFb/src/parsers/pm_io/pti.jl:1227
┌ Info: 2023-01-11T10:55:44.577 [5069:1]: The following fields in BUS are missing: NVHI, NVLO, EVHI, EVLO
└ @ PowerSystems /Users/rithwikmylavarapu/.julia/packages/PowerSystems/KIUFb/src/parsers/pm_io/pti.jl:1227
┌ Info: 2023-01-11T10:55:44.577 [5069:1]: The following fields in BUS are missing: NVHI, NVLO, EVHI, EVLO
└ @ PowerSystems /Users/rithwikmylavarapu/.julia/packages/PowerSystems/KIUFb/src/parsers/pm_io/pti.jl:1227
┌ Info: 2023-01-11T10:55:44.577 [5069:1]: The following fields in BUS are missing: NVHI, NVLO, EVHI, EVLO
└ @ PowerSystems /Users/rithwikmylavarapu/.julia/packages/PowerSystems/KIUFb/src/parsers/pm_io/pti.jl:1227
┌ Info: 2023-01-11T10:55:44.577 [5069:1]: The following fields in BUS are missing: NVHI, NVLO, EVHI, EVLO
└ @ PowerSystems /Users/rithwikmylavarapu/.julia/packages/PowerSystems/KIUFb/src/parsers/pm_io/pti.jl:1227
┌ Info: 2023-01-11T10:55:44.577 [5069:1]: The following fields in BUS are missing: NVHI, NVLO, EVHI, EVLO
└ @ PowerSystems /Users/rithwikmylavarapu/.julia/packages/PowerSystems/KIUFb/src/parsers/pm_io/pti.jl:1227
┌ Info: 2023-01-11T10:55:44.577 [5069:1]: The following fields in BUS are missing: NVHI, NVLO, EVHI, EVLO
└ @ PowerSystems /Users/rithwikmylavarapu/.julia/packages/PowerSystems/KIUFb/src/parsers/pm_io/pti.jl:1227
┌ Info: 2023-01-11T10:55:44.577 [5069:1]: The following fields in BUS are missing: NVHI, NVLO, EVHI, EVLO
└ @ PowerSystems /Users/rithwikmylavarapu/.julia/packages/PowerSystems/KIUFb/src/parsers/pm_io/pti.jl:1227
┌ Info: 2023-01-11T10:55:44.577 [5069:1]: The following fields in BUS are missing: NVHI, NVLO, EVHI, EVLO
└ @ PowerSystems /Users/rithwikmylavarapu/.julia/packages/PowerSystems/KIUFb/src/parsers/pm_io/pti.jl:1227
┌ Info: 2023-01-11T10:55:44.577 [5069:1]: The following fields in BUS are missing: NVHI, NVLO, EVHI, EVLO
└ @ PowerSystems /Users/rithwikmylavarapu/.julia/packages/PowerSystems/KIUFb/src/parsers/pm_io/pti.jl:1227
┌ Info: 2023-01-11T10:55:44.577 [5069:1]: The following fields in BUS are missing: NVHI, NVLO, EVHI, EVLO
└ @ PowerSystems /Users/rithwikmylavarapu/.julia/packages/PowerSystems/KIUFb/src/parsers/pm_io/pti.jl:1227
┌ Info: 2023-01-11T10:55:44.577 [5069:1]: The following fields in BUS are missing: NVHI, NVLO, EVHI, EVLO
└ @ PowerSystems /Users/rithwikmylavarapu/.julia/packages/PowerSystems/KIUFb/src/parsers/pm_io/pti.jl:1227
┌ Info: 2023-01-11T10:55:44.577 [5069:1]: The following fields in BUS are missing: NVHI, NVLO, EVHI, EVLO
└ @ PowerSystems /Users/rithwikmylavarapu/.julia/packages/PowerSystems/KIUFb/src/parsers/pm_io/pti.jl:1227
┌ Info: 2023-01-11T10:55:44.577 [5069:1]: The following fields in BUS are missing: NVHI, NVLO, EVHI, EVLO
└ @ PowerSystems /Users/rithwikmylavarapu/.julia/packages/PowerSystems/KIUFb/src/parsers/pm_io/pti.jl:1227
┌ Info: 2023-01-11T10:55:44.577 [5069:1]: The following fields in BUS are missing: NVHI, NVLO, EVHI, EVLO
└ @ PowerSystems /Users/rithwikmylavarapu/.julia/packages/PowerSystems/KIUFb/src/parsers/pm_io/pti.jl:1227
┌ Info: 2023-01-11T10:55:44.577 [5069:1]: The following fields in BUS are missing: NVHI, NVLO, EVHI, EVLO
└ @ PowerSystems /Users/rithwikmylavarapu/.julia/packages/PowerSystems/KIUFb/src/parsers/pm_io/pti.jl:1227
┌ Info: 2023-01-11T10:55:44.577 [5069:1]: The following fields in BUS are missing: NVHI, NVLO, EVHI, EVLO
└ @ PowerSystems /Users/rithwikmylavarapu/.julia/packages/PowerSystems/KIUFb/src/parsers/pm_io/pti.jl:1227
┌ Info: 2023-01-11T10:55:44.577 [5069:1]: The following fields in BUS are missing: NVHI, NVLO, EVHI, EVLO
└ @ PowerSystems /Users/rithwikmylavarapu/.julia/packages/PowerSystems/KIUFb/src/parsers/pm_io/pti.jl:1227
┌ Info: 2023-01-11T10:55:44.577 [5069:1]: The following fields in BUS are missing: NVHI, NVLO, EVHI, EVLO
└ @ PowerSystems /Users/rithwikmylavarapu/.julia/packages/PowerSystems/KIUFb/src/parsers/pm_io/pti.jl:1227
┌ Info: 2023-01-11T10:55:44.577 [5069:1]: The following fields in BUS are missing: NVHI, NVLO, EVHI, EVLO
└ @ PowerSystems /Users/rithwikmylavarapu/.julia/packages/PowerSystems/KIUFb/src/parsers/pm_io/pti.jl:1227
┌ Info: 2023-01-11T10:55:44.578 [5069:1]: The following fields in BUS are missing: NVHI, NVLO, EVHI, EVLO
└ @ PowerSystems /Users/rithwikmylavarapu/.julia/packages/PowerSystems/KIUFb/src/parsers/pm_io/pti.jl:1227
┌ Info: 2023-01-11T10:55:44.578 [5069:1]: The following fields in BUS are missing: NVHI, NVLO, EVHI, EVLO
└ @ PowerSystems /Users/rithwikmylavarapu/.julia/packages/PowerSystems/KIUFb/src/parsers/pm_io/pti.jl:1227
┌ Info: 2023-01-11T10:55:44.578 [5069:1]: The following fields in BUS are missing: NVHI, NVLO, EVHI, EVLO
└ @ PowerSystems /Users/rithwikmylavarapu/.julia/packages/PowerSystems/KIUFb/src/parsers/pm_io/pti.jl:1227
┌ Info: 2023-01-11T10:55:44.578 [5069:1]: The following fields in BUS are missing: NVHI, NVLO, EVHI, EVLO
└ @ PowerSystems /Users/rithwikmylavarapu/.julia/packages/PowerSystems/KIUFb/src/parsers/pm_io/pti.jl:1227
┌ Info: 2023-01-11T10:55:44.578 [5069:1]: The following fields in BUS are missing: NVHI, NVLO, EVHI, EVLO
└ @ PowerSystems /Users/rithwikmylavarapu/.julia/packages/PowerSystems/KIUFb/src/parsers/pm_io/pti.jl:1227
┌ Info: 2023-01-11T10:55:44.578 [5069:1]: The following fields in BUS are missing: NVHI, NVLO, EVHI, EVLO
└ @ PowerSystems /Users/rithwikmylavarapu/.julia/packages/PowerSystems/KIUFb/src/parsers/pm_io/pti.jl:1227
┌ Info: 2023-01-11T10:55:44.578 [5069:1]: The following fields in BUS are missing: NVHI, NVLO, EVHI, EVLO
└ @ PowerSystems /Users/rithwikmylavarapu/.julia/packages/PowerSystems/KIUFb/src/parsers/pm_io/pti.jl:1227
┌ Info: 2023-01-11T10:55:44.578 [5069:1]: The following fields in BUS are missing: NVHI, NVLO, EVHI, EVLO
└ @ PowerSystems /Users/rithwikmylavarapu/.julia/packages/PowerSystems/KIUFb/src/parsers/pm_io/pti.jl:1227
┌ Info: 2023-01-11T10:55:44.578 [5069:1]: The following fields in BUS are missing: NVHI, NVLO, EVHI, EVLO
└ @ PowerSystems /Users/rithwikmylavarapu/.julia/packages/PowerSystems/KIUFb/src/parsers/pm_io/pti.jl:1227
┌ Info: 2023-01-11T10:55:44.578 [5069:1]: The following fields in BUS are missing: NVHI, NVLO, EVHI, EVLO
└ @ PowerSystems /Users/rithwikmylavarapu/.julia/packages/PowerSystems/KIUFb/src/parsers/pm_io/pti.jl:1227
┌ Info: 2023-01-11T10:55:44.578 [5069:1]: The following fields in BUS are missing: NVHI, NVLO, EVHI, EVLO
└ @ PowerSystems /Users/rithwikmylavarapu/.julia/packages/PowerSystems/KIUFb/src/parsers/pm_io/pti.jl:1227
┌ Info: 2023-01-11T10:55:44.578 [5069:1]: The following fields in BUS are missing: NVHI, NVLO, EVHI, EVLO
└ @ PowerSystems /Users/rithwikmylavarapu/.julia/packages/PowerSystems/KIUFb/src/parsers/pm_io/pti.jl:1227
┌ Info: 2023-01-11T10:55:44.578 [5069:1]: The following fields in BUS are missing: NVHI, NVLO, EVHI, EVLO
└ @ PowerSystems /Users/rithwikmylavarapu/.julia/packages/PowerSystems/KIUFb/src/parsers/pm_io/pti.jl:1227
┌ Info: 2023-01-11T10:55:44.578 [5069:1]: The following fields in BUS are missing: NVHI, NVLO, EVHI, EVLO
└ @ PowerSystems /Users/rithwikmylavarapu/.julia/packages/PowerSystems/KIUFb/src/parsers/pm_io/pti.jl:1227
┌ Info: 2023-01-11T10:55:44.578 [5069:1]: The following fields in BUS are missing: NVHI, NVLO, EVHI, EVLO
└ @ PowerSystems /Users/rithwikmylavarapu/.julia/packages/PowerSystems/KIUFb/src/parsers/pm_io/pti.jl:1227
┌ Info: 2023-01-11T10:55:44.578 [5069:1]: The following fields in BUS are missing: NVHI, NVLO, EVHI, EVLO
└ @ PowerSystems /Users/rithwikmylavarapu/.julia/packages/PowerSystems/KIUFb/src/parsers/pm_io/pti.jl:1227
┌ Info: 2023-01-11T10:55:44.578 [5069:1]: The following fields in BUS are missing: NVHI, NVLO, EVHI, EVLO
└ @ PowerSystems /Users/rithwikmylavarapu/.julia/packages/PowerSystems/KIUFb/src/parsers/pm_io/pti.jl:1227
┌ Info: 2023-01-11T10:55:44.578 [5069:1]: The following fields in BUS are missing: NVHI, NVLO, EVHI, EVLO
└ @ PowerSystems /Users/rithwikmylavarapu/.julia/packages/PowerSystems/KIUFb/src/parsers/pm_io/pti.jl:1227
┌ Info: 2023-01-11T10:55:44.578 [5069:1]: The following fields in BUS are missing: NVHI, NVLO, EVHI, EVLO
└ @ PowerSystems /Users/rithwikmylavarapu/.julia/packages/PowerSystems/KIUFb/src/parsers/pm_io/pti.jl:1227
┌ Info: 2023-01-11T10:55:44.578 [5069:1]: The following fields in BUS are missing: NVHI, NVLO, EVHI, EVLO
└ @ PowerSystems /Users/rithwikmylavarapu/.julia/packages/PowerSystems/KIUFb/src/parsers/pm_io/pti.jl:1227
┌ Info: 2023-01-11T10:55:44.578 [5069:1]: The following fields in BUS are missing: NVHI, NVLO, EVHI, EVLO
└ @ PowerSystems /Users/rithwikmylavarapu/.julia/packages/PowerSystems/KIUFb/src/parsers/pm_io/pti.jl:1227
┌ Info: 2023-01-11T10:55:44.578 [5069:1]: The following fields in BUS are missing: NVHI, NVLO, EVHI, EVLO
└ @ PowerSystems /Users/rithwikmylavarapu/.julia/packages/PowerSystems/KIUFb/src/parsers/pm_io/pti.jl:1227
┌ Info: 2023-01-11T10:55:44.578 [5069:1]: The following fields in BUS are missing: NVHI, NVLO, EVHI, EVLO
└ @ PowerSystems /Users/rithwikmylavarapu/.julia/packages/PowerSystems/KIUFb/src/parsers/pm_io/pti.jl:1227
┌ Info: 2023-01-11T10:55:44.578 [5069:1]: The following fields in BUS are missing: NVHI, NVLO, EVHI, EVLO
└ @ PowerSystems /Users/rithwikmylavarapu/.julia/packages/PowerSystems/KIUFb/src/parsers/pm_io/pti.jl:1227
┌ Info: 2023-01-11T10:55:44.578 [5069:1]: The following fields in BUS are missing: NVHI, NVLO, EVHI, EVLO
└ @ PowerSystems /Users/rithwikmylavarapu/.julia/packages/PowerSystems/KIUFb/src/parsers/pm_io/pti.jl:1227
┌ Info: 2023-01-11T10:55:44.578 [5069:1]: The following fields in BUS are missing: NVHI, NVLO, EVHI, EVLO
└ @ PowerSystems /Users/rithwikmylavarapu/.julia/packages/PowerSystems/KIUFb/src/parsers/pm_io/pti.jl:1227
┌ Info: 2023-01-11T10:55:44.578 [5069:1]: The following fields in BUS are missing: NVHI, NVLO, EVHI, EVLO
└ @ PowerSystems /Users/rithwikmylavarapu/.julia/packages/PowerSystems/KIUFb/src/parsers/pm_io/pti.jl:1227
┌ Info: 2023-01-11T10:55:44.578 [5069:1]: The following fields in BUS are missing: NVHI, NVLO, EVHI, EVLO
└ @ PowerSystems /Users/rithwikmylavarapu/.julia/packages/PowerSystems/KIUFb/src/parsers/pm_io/pti.jl:1227
┌ Info: 2023-01-11T10:55:44.578 [5069:1]: The following fields in BUS are missing: NVHI, NVLO, EVHI, EVLO
└ @ PowerSystems /Users/rithwikmylavarapu/.julia/packages/PowerSystems/KIUFb/src/parsers/pm_io/pti.jl:1227
┌ Info: 2023-01-11T10:55:44.578 [5069:1]: The following fields in BUS are missing: NVHI, NVLO, EVHI, EVLO
└ @ PowerSystems /Users/rithwikmylavarapu/.julia/packages/PowerSystems/KIUFb/src/parsers/pm_io/pti.jl:1227
┌ Info: 2023-01-11T10:55:44.578 [5069:1]: The following fields in BUS are missing: NVHI, NVLO, EVHI, EVLO
└ @ PowerSystems /Users/rithwikmylavarapu/.julia/packages/PowerSystems/KIUFb/src/parsers/pm_io/pti.jl:1227
┌ Info: 2023-01-11T10:55:44.578 [5069:1]: The following fields in BUS are missing: NVHI, NVLO, EVHI, EVLO
└ @ PowerSystems /Users/rithwikmylavarapu/.julia/packages/PowerSystems/KIUFb/src/parsers/pm_io/pti.jl:1227
┌ Info: 2023-01-11T10:55:44.579 [5069:1]: The following fields in BUS are missing: NVHI, NVLO, EVHI, EVLO
└ @ PowerSystems /Users/rithwikmylavarapu/.julia/packages/PowerSystems/KIUFb/src/parsers/pm_io/pti.jl:1227
┌ Info: 2023-01-11T10:55:44.579 [5069:1]: The following fields in BUS are missing: NVHI, NVLO, EVHI, EVLO
└ @ PowerSystems /Users/rithwikmylavarapu/.julia/packages/PowerSystems/KIUFb/src/parsers/pm_io/pti.jl:1227
┌ Info: 2023-01-11T10:55:44.579 [5069:1]: The following fields in BUS are missing: NVHI, NVLO, EVHI, EVLO
└ @ PowerSystems /Users/rithwikmylavarapu/.julia/packages/PowerSystems/KIUFb/src/parsers/pm_io/pti.jl:1227
┌ Info: 2023-01-11T10:55:44.579 [5069:1]: The following fields in BUS are missing: NVHI, NVLO, EVHI, EVLO
└ @ PowerSystems /Users/rithwikmylavarapu/.julia/packages/PowerSystems/KIUFb/src/parsers/pm_io/pti.jl:1227
┌ Info: 2023-01-11T10:55:44.579 [5069:1]: The following fields in BUS are missing: NVHI, NVLO, EVHI, EVLO
└ @ PowerSystems /Users/rithwikmylavarapu/.julia/packages/PowerSystems/KIUFb/src/parsers/pm_io/pti.jl:1227
┌ Info: 2023-01-11T10:55:44.579 [5069:1]: The following fields in BUS are missing: NVHI, NVLO, EVHI, EVLO
└ @ PowerSystems /Users/rithwikmylavarapu/.julia/packages/PowerSystems/KIUFb/src/parsers/pm_io/pti.jl:1227
┌ Info: 2023-01-11T10:55:44.579 [5069:1]: The following fields in BUS are missing: NVHI, NVLO, EVHI, EVLO
└ @ PowerSystems /Users/rithwikmylavarapu/.julia/packages/PowerSystems/KIUFb/src/parsers/pm_io/pti.jl:1227
┌ Info: 2023-01-11T10:55:44.579 [5069:1]: The following fields in BUS are missing: NVHI, NVLO, EVHI, EVLO
└ @ PowerSystems /Users/rithwikmylavarapu/.julia/packages/PowerSystems/KIUFb/src/parsers/pm_io/pti.jl:1227
┌ Info: 2023-01-11T10:55:44.579 [5069:1]: The following fields in BUS are missing: NVHI, NVLO, EVHI, EVLO
└ @ PowerSystems /Users/rithwikmylavarapu/.julia/packages/PowerSystems/KIUFb/src/parsers/pm_io/pti.jl:1227
┌ Info: 2023-01-11T10:55:44.579 [5069:1]: The following fields in BUS are missing: NVHI, NVLO, EVHI, EVLO
└ @ PowerSystems /Users/rithwikmylavarapu/.julia/packages/PowerSystems/KIUFb/src/parsers/pm_io/pti.jl:1227
┌ Info: 2023-01-11T10:55:44.579 [5069:1]: The following fields in BUS are missing: NVHI, NVLO, EVHI, EVLO
└ @ PowerSystems /Users/rithwikmylavarapu/.julia/packages/PowerSystems/KIUFb/src/parsers/pm_io/pti.jl:1227
┌ Info: 2023-01-11T10:55:44.579 [5069:1]: The following fields in BUS are missing: NVHI, NVLO, EVHI, EVLO
└ @ PowerSystems /Users/rithwikmylavarapu/.julia/packages/PowerSystems/KIUFb/src/parsers/pm_io/pti.jl:1227
┌ Info: 2023-01-11T10:55:44.579 [5069:1]: The following fields in BUS are missing: NVHI, NVLO, EVHI, EVLO
└ @ PowerSystems /Users/rithwikmylavarapu/.julia/packages/PowerSystems/KIUFb/src/parsers/pm_io/pti.jl:1227
┌ Info: 2023-01-11T10:55:44.579 [5069:1]: The following fields in BUS are missing: NVHI, NVLO, EVHI, EVLO
└ @ PowerSystems /Users/rithwikmylavarapu/.julia/packages/PowerSystems/KIUFb/src/parsers/pm_io/pti.jl:1227
┌ Info: 2023-01-11T10:55:44.579 [5069:1]: The following fields in BUS are missing: NVHI, NVLO, EVHI, EVLO
└ @ PowerSystems /Users/rithwikmylavarapu/.julia/packages/PowerSystems/KIUFb/src/parsers/pm_io/pti.jl:1227
┌ Info: 2023-01-11T10:55:44.579 [5069:1]: The following fields in BUS are missing: NVHI, NVLO, EVHI, EVLO
└ @ PowerSystems /Users/rithwikmylavarapu/.julia/packages/PowerSystems/KIUFb/src/parsers/pm_io/pti.jl:1227
┌ Info: 2023-01-11T10:55:44.579 [5069:1]: The following fields in BUS are missing: NVHI, NVLO, EVHI, EVLO
└ @ PowerSystems /Users/rithwikmylavarapu/.julia/packages/PowerSystems/KIUFb/src/parsers/pm_io/pti.jl:1227
┌ Info: 2023-01-11T10:55:44.579 [5069:1]: The following fields in BUS are missing: NVHI, NVLO, EVHI, EVLO
└ @ PowerSystems /Users/rithwikmylavarapu/.julia/packages/PowerSystems/KIUFb/src/parsers/pm_io/pti.jl:1227
┌ Info: 2023-01-11T10:55:44.579 [5069:1]: The following fields in BUS are missing: NVHI, NVLO, EVHI, EVLO
└ @ PowerSystems /Users/rithwikmylavarapu/.julia/packages/PowerSystems/KIUFb/src/parsers/pm_io/pti.jl:1227
┌ Info: 2023-01-11T10:55:44.579 [5069:1]: The following fields in BUS are missing: NVHI, NVLO, EVHI, EVLO
└ @ PowerSystems /Users/rithwikmylavarapu/.julia/packages/PowerSystems/KIUFb/src/parsers/pm_io/pti.jl:1227
┌ Info: 2023-01-11T10:55:44.579 [5069:1]: The following fields in BUS are missing: NVHI, NVLO, EVHI, EVLO
└ @ PowerSystems /Users/rithwikmylavarapu/.julia/packages/PowerSystems/KIUFb/src/parsers/pm_io/pti.jl:1227
┌ Info: 2023-01-11T10:55:44.579 [5069:1]: The following fields in BUS are missing: NVHI, NVLO, EVHI, EVLO
└ @ PowerSystems /Users/rithwikmylavarapu/.julia/packages/PowerSystems/KIUFb/src/parsers/pm_io/pti.jl:1227
┌ Info: 2023-01-11T10:55:44.579 [5069:1]: The following fields in BUS are missing: NVHI, NVLO, EVHI, EVLO
└ @ PowerSystems /Users/rithwikmylavarapu/.julia/packages/PowerSystems/KIUFb/src/parsers/pm_io/pti.jl:1227
┌ Info: 2023-01-11T10:55:44.579 [5069:1]: The following fields in BUS are missing: NVHI, NVLO, EVHI, EVLO
└ @ PowerSystems /Users/rithwikmylavarapu/.julia/packages/PowerSystems/KIUFb/src/parsers/pm_io/pti.jl:1227
┌ Info: 2023-01-11T10:55:44.579 [5069:1]: The following fields in BUS are missing: NVHI, NVLO, EVHI, EVLO
└ @ PowerSystems /Users/rithwikmylavarapu/.julia/packages/PowerSystems/KIUFb/src/parsers/pm_io/pti.jl:1227
┌ Info: 2023-01-11T10:55:44.579 [5069:1]: The following fields in BUS are missing: NVHI, NVLO, EVHI, EVLO
└ @ PowerSystems /Users/rithwikmylavarapu/.julia/packages/PowerSystems/KIUFb/src/parsers/pm_io/pti.jl:1227
┌ Info: 2023-01-11T10:55:44.579 [5069:1]: The following fields in BUS are missing: NVHI, NVLO, EVHI, EVLO
└ @ PowerSystems /Users/rithwikmylavarapu/.julia/packages/PowerSystems/KIUFb/src/parsers/pm_io/pti.jl:1227
┌ Info: 2023-01-11T10:55:44.579 [5069:1]: The following fields in BUS are missing: NVHI, NVLO, EVHI, EVLO
└ @ PowerSystems /Users/rithwikmylavarapu/.julia/packages/PowerSystems/KIUFb/src/parsers/pm_io/pti.jl:1227
┌ Info: 2023-01-11T10:55:44.579 [5069:1]: The following fields in BUS are missing: NVHI, NVLO, EVHI, EVLO
└ @ PowerSystems /Users/rithwikmylavarapu/.julia/packages/PowerSystems/KIUFb/src/parsers/pm_io/pti.jl:1227
┌ Info: 2023-01-11T10:55:44.579 [5069:1]: The following fields in BUS are missing: NVHI, NVLO, EVHI, EVLO
└ @ PowerSystems /Users/rithwikmylavarapu/.julia/packages/PowerSystems/KIUFb/src/parsers/pm_io/pti.jl:1227
┌ Info: 2023-01-11T10:55:44.579 [5069:1]: The following fields in BUS are missing: NVHI, NVLO, EVHI, EVLO
└ @ PowerSystems /Users/rithwikmylavarapu/.julia/packages/PowerSystems/KIUFb/src/parsers/pm_io/pti.jl:1227
┌ Info: 2023-01-11T10:55:44.579 [5069:1]: The following fields in BUS are missing: NVHI, NVLO, EVHI, EVLO
└ @ PowerSystems /Users/rithwikmylavarapu/.julia/packages/PowerSystems/KIUFb/src/parsers/pm_io/pti.jl:1227
┌ Info: 2023-01-11T10:55:44.580 [5069:1]: The following fields in BUS are missing: NVHI, NVLO, EVHI, EVLO
└ @ PowerSystems /Users/rithwikmylavarapu/.julia/packages/PowerSystems/KIUFb/src/parsers/pm_io/pti.jl:1227
┌ Info: 2023-01-11T10:55:44.580 [5069:1]: The following fields in BUS are missing: NVHI, NVLO, EVHI, EVLO
└ @ PowerSystems /Users/rithwikmylavarapu/.julia/packages/PowerSystems/KIUFb/src/parsers/pm_io/pti.jl:1227
┌ Info: 2023-01-11T10:55:44.580 [5069:1]: The following fields in BUS are missing: NVHI, NVLO, EVHI, EVLO
└ @ PowerSystems /Users/rithwikmylavarapu/.julia/packages/PowerSystems/KIUFb/src/parsers/pm_io/pti.jl:1227
┌ Info: 2023-01-11T10:55:44.580 [5069:1]: The following fields in BUS are missing: NVHI, NVLO, EVHI, EVLO
└ @ PowerSystems /Users/rithwikmylavarapu/.julia/packages/PowerSystems/KIUFb/src/parsers/pm_io/pti.jl:1227
┌ Info: 2023-01-11T10:55:44.580 [5069:1]: The following fields in BUS are missing: NVHI, NVLO, EVHI, EVLO
└ @ PowerSystems /Users/rithwikmylavarapu/.julia/packages/PowerSystems/KIUFb/src/parsers/pm_io/pti.jl:1227
┌ Info: 2023-01-11T10:55:44.580 [5069:1]: The following fields in BUS are missing: NVHI, NVLO, EVHI, EVLO
└ @ PowerSystems /Users/rithwikmylavarapu/.julia/packages/PowerSystems/KIUFb/src/parsers/pm_io/pti.jl:1227
┌ Info: 2023-01-11T10:55:44.580 [5069:1]: The following fields in BUS are missing: NVHI, NVLO, EVHI, EVLO
└ @ PowerSystems /Users/rithwikmylavarapu/.julia/packages/PowerSystems/KIUFb/src/parsers/pm_io/pti.jl:1227
┌ Info: 2023-01-11T10:55:44.580 [5069:1]: The following fields in BUS are missing: NVHI, NVLO, EVHI, EVLO
└ @ PowerSystems /Users/rithwikmylavarapu/.julia/packages/PowerSystems/KIUFb/src/parsers/pm_io/pti.jl:1227
┌ Info: 2023-01-11T10:55:44.580 [5069:1]: The following fields in BUS are missing: NVHI, NVLO, EVHI, EVLO
└ @ PowerSystems /Users/rithwikmylavarapu/.julia/packages/PowerSystems/KIUFb/src/parsers/pm_io/pti.jl:1227
┌ Info: 2023-01-11T10:55:44.580 [5069:1]: The following fields in BUS are missing: NVHI, NVLO, EVHI, EVLO
└ @ PowerSystems /Users/rithwikmylavarapu/.julia/packages/PowerSystems/KIUFb/src/parsers/pm_io/pti.jl:1227
┌ Info: 2023-01-11T10:55:44.580 [5069:1]: The following fields in BUS are missing: NVHI, NVLO, EVHI, EVLO
└ @ PowerSystems /Users/rithwikmylavarapu/.julia/packages/PowerSystems/KIUFb/src/parsers/pm_io/pti.jl:1227
┌ Info: 2023-01-11T10:55:44.580 [5069:1]: The following fields in BUS are missing: NVHI, NVLO, EVHI, EVLO
└ @ PowerSystems /Users/rithwikmylavarapu/.julia/packages/PowerSystems/KIUFb/src/parsers/pm_io/pti.jl:1227
┌ Info: 2023-01-11T10:55:44.580 [5069:1]: The following fields in BUS are missing: NVHI, NVLO, EVHI, EVLO
└ @ PowerSystems /Users/rithwikmylavarapu/.julia/packages/PowerSystems/KIUFb/src/parsers/pm_io/pti.jl:1227
┌ Info: 2023-01-11T10:55:44.580 [5069:1]: The following fields in BUS are missing: NVHI, NVLO, EVHI, EVLO
└ @ PowerSystems /Users/rithwikmylavarapu/.julia/packages/PowerSystems/KIUFb/src/parsers/pm_io/pti.jl:1227
┌ Info: 2023-01-11T10:55:44.580 [5069:1]: The following fields in BUS are missing: NVHI, NVLO, EVHI, EVLO
└ @ PowerSystems /Users/rithwikmylavarapu/.julia/packages/PowerSystems/KIUFb/src/parsers/pm_io/pti.jl:1227
┌ Info: 2023-01-11T10:55:44.580 [5069:1]: The following fields in BUS are missing: NVHI, NVLO, EVHI, EVLO
└ @ PowerSystems /Users/rithwikmylavarapu/.julia/packages/PowerSystems/KIUFb/src/parsers/pm_io/pti.jl:1227
┌ Info: 2023-01-11T10:55:44.580 [5069:1]: The following fields in BUS are missing: NVHI, NVLO, EVHI, EVLO
└ @ PowerSystems /Users/rithwikmylavarapu/.julia/packages/PowerSystems/KIUFb/src/parsers/pm_io/pti.jl:1227
┌ Info: 2023-01-11T10:55:44.580 [5069:1]: The following fields in BUS are missing: NVHI, NVLO, EVHI, EVLO
└ @ PowerSystems /Users/rithwikmylavarapu/.julia/packages/PowerSystems/KIUFb/src/parsers/pm_io/pti.jl:1227
┌ Info: 2023-01-11T10:55:44.580 [5069:1]: The following fields in BUS are missing: NVHI, NVLO, EVHI, EVLO
└ @ PowerSystems /Users/rithwikmylavarapu/.julia/packages/PowerSystems/KIUFb/src/parsers/pm_io/pti.jl:1227
┌ Info: 2023-01-11T10:55:44.580 [5069:1]: The following fields in BUS are missing: NVHI, NVLO, EVHI, EVLO
└ @ PowerSystems /Users/rithwikmylavarapu/.julia/packages/PowerSystems/KIUFb/src/parsers/pm_io/pti.jl:1227
┌ Info: 2023-01-11T10:55:44.580 [5069:1]: The following fields in BUS are missing: NVHI, NVLO, EVHI, EVLO
└ @ PowerSystems /Users/rithwikmylavarapu/.julia/packages/PowerSystems/KIUFb/src/parsers/pm_io/pti.jl:1227
┌ Info: 2023-01-11T10:55:44.580 [5069:1]: The following fields in BUS are missing: NVHI, NVLO, EVHI, EVLO
└ @ PowerSystems /Users/rithwikmylavarapu/.julia/packages/PowerSystems/KIUFb/src/parsers/pm_io/pti.jl:1227
┌ Info: 2023-01-11T10:55:44.580 [5069:1]: The following fields in BUS are missing: NVHI, NVLO, EVHI, EVLO
└ @ PowerSystems /Users/rithwikmylavarapu/.julia/packages/PowerSystems/KIUFb/src/parsers/pm_io/pti.jl:1227
┌ Info: 2023-01-11T10:55:44.580 [5069:1]: The following fields in BUS are missing: NVHI, NVLO, EVHI, EVLO
└ @ PowerSystems /Users/rithwikmylavarapu/.julia/packages/PowerSystems/KIUFb/src/parsers/pm_io/pti.jl:1227
┌ Info: 2023-01-11T10:55:44.580 [5069:1]: The following fields in BUS are missing: NVHI, NVLO, EVHI, EVLO
└ @ PowerSystems /Users/rithwikmylavarapu/.julia/packages/PowerSystems/KIUFb/src/parsers/pm_io/pti.jl:1227
┌ Info: 2023-01-11T10:55:44.580 [5069:1]: The following fields in BUS are missing: NVHI, NVLO, EVHI, EVLO
└ @ PowerSystems /Users/rithwikmylavarapu/.julia/packages/PowerSystems/KIUFb/src/parsers/pm_io/pti.jl:1227
┌ Info: 2023-01-11T10:55:44.580 [5069:1]: The following fields in BUS are missing: NVHI, NVLO, EVHI, EVLO
└ @ PowerSystems /Users/rithwikmylavarapu/.julia/packages/PowerSystems/KIUFb/src/parsers/pm_io/pti.jl:1227
┌ Info: 2023-01-11T10:55:44.580 [5069:1]: The following fields in BUS are missing: NVHI, NVLO, EVHI, EVLO
└ @ PowerSystems /Users/rithwikmylavarapu/.julia/packages/PowerSystems/KIUFb/src/parsers/pm_io/pti.jl:1227
┌ Info: 2023-01-11T10:55:44.580 [5069:1]: The following fields in BUS are missing: NVHI, NVLO, EVHI, EVLO
└ @ PowerSystems /Users/rithwikmylavarapu/.julia/packages/PowerSystems/KIUFb/src/parsers/pm_io/pti.jl:1227
┌ Info: 2023-01-11T10:55:44.580 [5069:1]: The following fields in BUS are missing: NVHI, NVLO, EVHI, EVLO
└ @ PowerSystems /Users/rithwikmylavarapu/.julia/packages/PowerSystems/KIUFb/src/parsers/pm_io/pti.jl:1227
┌ Info: 2023-01-11T10:55:44.581 [5069:1]: The following fields in BUS are missing: NVHI, NVLO, EVHI, EVLO
└ @ PowerSystems /Users/rithwikmylavarapu/.julia/packages/PowerSystems/KIUFb/src/parsers/pm_io/pti.jl:1227
┌ Info: 2023-01-11T10:55:44.581 [5069:1]: The following fields in BUS are missing: NVHI, NVLO, EVHI, EVLO
└ @ PowerSystems /Users/rithwikmylavarapu/.julia/packages/PowerSystems/KIUFb/src/parsers/pm_io/pti.jl:1227
┌ Info: 2023-01-11T10:55:44.581 [5069:1]: The following fields in BUS are missing: NVHI, NVLO, EVHI, EVLO
└ @ PowerSystems /Users/rithwikmylavarapu/.julia/packages/PowerSystems/KIUFb/src/parsers/pm_io/pti.jl:1227
┌ Info: 2023-01-11T10:55:44.581 [5069:1]: The following fields in BUS are missing: NVHI, NVLO, EVHI, EVLO
└ @ PowerSystems /Users/rithwikmylavarapu/.julia/packages/PowerSystems/KIUFb/src/parsers/pm_io/pti.jl:1227
┌ Info: 2023-01-11T10:55:44.581 [5069:1]: The following fields in BUS are missing: NVHI, NVLO, EVHI, EVLO
└ @ PowerSystems /Users/rithwikmylavarapu/.julia/packages/PowerSystems/KIUFb/src/parsers/pm_io/pti.jl:1227
┌ Info: 2023-01-11T10:55:44.581 [5069:1]: The following fields in BUS are missing: NVHI, NVLO, EVHI, EVLO
└ @ PowerSystems /Users/rithwikmylavarapu/.julia/packages/PowerSystems/KIUFb/src/parsers/pm_io/pti.jl:1227
┌ Info: 2023-01-11T10:55:44.581 [5069:1]: The following fields in BUS are missing: NVHI, NVLO, EVHI, EVLO
└ @ PowerSystems /Users/rithwikmylavarapu/.julia/packages/PowerSystems/KIUFb/src/parsers/pm_io/pti.jl:1227
┌ Info: 2023-01-11T10:55:44.581 [5069:1]: The following fields in BUS are missing: NVHI, NVLO, EVHI, EVLO
└ @ PowerSystems /Users/rithwikmylavarapu/.julia/packages/PowerSystems/KIUFb/src/parsers/pm_io/pti.jl:1227
┌ Info: 2023-01-11T10:55:44.581 [5069:1]: The following fields in BUS are missing: NVHI, NVLO, EVHI, EVLO
└ @ PowerSystems /Users/rithwikmylavarapu/.julia/packages/PowerSystems/KIUFb/src/parsers/pm_io/pti.jl:1227
┌ Info: 2023-01-11T10:55:44.581 [5069:1]: The following fields in BUS are missing: NVHI, NVLO, EVHI, EVLO
└ @ PowerSystems /Users/rithwikmylavarapu/.julia/packages/PowerSystems/KIUFb/src/parsers/pm_io/pti.jl:1227
┌ Info: 2023-01-11T10:55:44.581 [5069:1]: The following fields in BUS are missing: NVHI, NVLO, EVHI, EVLO
└ @ PowerSystems /Users/rithwikmylavarapu/.julia/packages/PowerSystems/KIUFb/src/parsers/pm_io/pti.jl:1227
┌ Info: 2023-01-11T10:55:44.581 [5069:1]: The following fields in BUS are missing: NVHI, NVLO, EVHI, EVLO
└ @ PowerSystems /Users/rithwikmylavarapu/.julia/packages/PowerSystems/KIUFb/src/parsers/pm_io/pti.jl:1227
┌ Info: 2023-01-11T10:55:44.581 [5069:1]: The following fields in BUS are missing: NVHI, NVLO, EVHI, EVLO
└ @ PowerSystems /Users/rithwikmylavarapu/.julia/packages/PowerSystems/KIUFb/src/parsers/pm_io/pti.jl:1227
┌ Info: 2023-01-11T10:55:44.581 [5069:1]: The following fields in BUS are missing: NVHI, NVLO, EVHI, EVLO
└ @ PowerSystems /Users/rithwikmylavarapu/.julia/packages/PowerSystems/KIUFb/src/parsers/pm_io/pti.jl:1227
┌ Info: 2023-01-11T10:55:44.581 [5069:1]: The following fields in BUS are missing: NVHI, NVLO, EVHI, EVLO
└ @ PowerSystems /Users/rithwikmylavarapu/.julia/packages/PowerSystems/KIUFb/src/parsers/pm_io/pti.jl:1227
┌ Info: 2023-01-11T10:55:44.581 [5069:1]: The following fields in BUS are missing: NVHI, NVLO, EVHI, EVLO
└ @ PowerSystems /Users/rithwikmylavarapu/.julia/packages/PowerSystems/KIUFb/src/parsers/pm_io/pti.jl:1227
┌ Info: 2023-01-11T10:55:44.581 [5069:1]: The following fields in BUS are missing: NVHI, NVLO, EVHI, EVLO
└ @ PowerSystems /Users/rithwikmylavarapu/.julia/packages/PowerSystems/KIUFb/src/parsers/pm_io/pti.jl:1227
┌ Info: 2023-01-11T10:55:44.581 [5069:1]: The following fields in BUS are missing: NVHI, NVLO, EVHI, EVLO
└ @ PowerSystems /Users/rithwikmylavarapu/.julia/packages/PowerSystems/KIUFb/src/parsers/pm_io/pti.jl:1227
┌ Info: 2023-01-11T10:55:44.581 [5069:1]: The following fields in BUS are missing: NVHI, NVLO, EVHI, EVLO
└ @ PowerSystems /Users/rithwikmylavarapu/.julia/packages/PowerSystems/KIUFb/src/parsers/pm_io/pti.jl:1227
┌ Info: 2023-01-11T10:55:44.581 [5069:1]: The following fields in LOAD are missing: INTRPT
└ @ PowerSystems /Users/rithwikmylavarapu/.julia/packages/PowerSystems/KIUFb/src/parsers/pm_io/pti.jl:1227
┌ Info: 2023-01-11T10:55:44.581 [5069:1]: The following fields in LOAD are missing: INTRPT
└ @ PowerSystems /Users/rithwikmylavarapu/.julia/packages/PowerSystems/KIUFb/src/parsers/pm_io/pti.jl:1227
┌ Info: 2023-01-11T10:55:44.581 [5069:1]: The following fields in LOAD are missing: INTRPT
└ @ PowerSystems /Users/rithwikmylavarapu/.julia/packages/PowerSystems/KIUFb/src/parsers/pm_io/pti.jl:1227
┌ Info: 2023-01-11T10:55:44.581 [5069:1]: The following fields in LOAD are missing: INTRPT
└ @ PowerSystems /Users/rithwikmylavarapu/.julia/packages/PowerSystems/KIUFb/src/parsers/pm_io/pti.jl:1227
┌ Info: 2023-01-11T10:55:44.581 [5069:1]: The following fields in LOAD are missing: INTRPT
└ @ PowerSystems /Users/rithwikmylavarapu/.julia/packages/PowerSystems/KIUFb/src/parsers/pm_io/pti.jl:1227
┌ Info: 2023-01-11T10:55:44.582 [5069:1]: The following fields in LOAD are missing: INTRPT
└ @ PowerSystems /Users/rithwikmylavarapu/.julia/packages/PowerSystems/KIUFb/src/parsers/pm_io/pti.jl:1227
┌ Info: 2023-01-11T10:55:44.582 [5069:1]: The following fields in LOAD are missing: INTRPT
└ @ PowerSystems /Users/rithwikmylavarapu/.julia/packages/PowerSystems/KIUFb/src/parsers/pm_io/pti.jl:1227
┌ Info: 2023-01-11T10:55:44.582 [5069:1]: The following fields in LOAD are missing: INTRPT
└ @ PowerSystems /Users/rithwikmylavarapu/.julia/packages/PowerSystems/KIUFb/src/parsers/pm_io/pti.jl:1227
┌ Info: 2023-01-11T10:55:44.582 [5069:1]: The following fields in LOAD are missing: INTRPT
└ @ PowerSystems /Users/rithwikmylavarapu/.julia/packages/PowerSystems/KIUFb/src/parsers/pm_io/pti.jl:1227
┌ Info: 2023-01-11T10:55:44.582 [5069:1]: The following fields in LOAD are missing: INTRPT
└ @ PowerSystems /Users/rithwikmylavarapu/.julia/packages/PowerSystems/KIUFb/src/parsers/pm_io/pti.jl:1227
┌ Info: 2023-01-11T10:55:44.582 [5069:1]: The following fields in LOAD are missing: INTRPT
└ @ PowerSystems /Users/rithwikmylavarapu/.julia/packages/PowerSystems/KIUFb/src/parsers/pm_io/pti.jl:1227
┌ Info: 2023-01-11T10:55:44.582 [5069:1]: The following fields in LOAD are missing: INTRPT
└ @ PowerSystems /Users/rithwikmylavarapu/.julia/packages/PowerSystems/KIUFb/src/parsers/pm_io/pti.jl:1227
┌ Info: 2023-01-11T10:55:44.582 [5069:1]: The following fields in LOAD are missing: INTRPT
└ @ PowerSystems /Users/rithwikmylavarapu/.julia/packages/PowerSystems/KIUFb/src/parsers/pm_io/pti.jl:1227
┌ Info: 2023-01-11T10:55:44.582 [5069:1]: The following fields in LOAD are missing: INTRPT
└ @ PowerSystems /Users/rithwikmylavarapu/.julia/packages/PowerSystems/KIUFb/src/parsers/pm_io/pti.jl:1227
┌ Info: 2023-01-11T10:55:44.582 [5069:1]: The following fields in LOAD are missing: INTRPT
└ @ PowerSystems /Users/rithwikmylavarapu/.julia/packages/PowerSystems/KIUFb/src/parsers/pm_io/pti.jl:1227
┌ Info: 2023-01-11T10:55:44.582 [5069:1]: The following fields in LOAD are missing: INTRPT
└ @ PowerSystems /Users/rithwikmylavarapu/.julia/packages/PowerSystems/KIUFb/src/parsers/pm_io/pti.jl:1227
┌ Info: 2023-01-11T10:55:44.582 [5069:1]: The following fields in LOAD are missing: INTRPT
└ @ PowerSystems /Users/rithwikmylavarapu/.julia/packages/PowerSystems/KIUFb/src/parsers/pm_io/pti.jl:1227
┌ Info: 2023-01-11T10:55:44.582 [5069:1]: The following fields in LOAD are missing: INTRPT
└ @ PowerSystems /Users/rithwikmylavarapu/.julia/packages/PowerSystems/KIUFb/src/parsers/pm_io/pti.jl:1227
┌ Info: 2023-01-11T10:55:44.582 [5069:1]: The following fields in LOAD are missing: INTRPT
└ @ PowerSystems /Users/rithwikmylavarapu/.julia/packages/PowerSystems/KIUFb/src/parsers/pm_io/pti.jl:1227
┌ Info: 2023-01-11T10:55:44.582 [5069:1]: The following fields in LOAD are missing: INTRPT
└ @ PowerSystems /Users/rithwikmylavarapu/.julia/packages/PowerSystems/KIUFb/src/parsers/pm_io/pti.jl:1227
┌ Info: 2023-01-11T10:55:44.582 [5069:1]: The following fields in LOAD are missing: INTRPT
└ @ PowerSystems /Users/rithwikmylavarapu/.julia/packages/PowerSystems/KIUFb/src/parsers/pm_io/pti.jl:1227
┌ Info: 2023-01-11T10:55:44.582 [5069:1]: The following fields in LOAD are missing: INTRPT
└ @ PowerSystems /Users/rithwikmylavarapu/.julia/packages/PowerSystems/KIUFb/src/parsers/pm_io/pti.jl:1227
┌ Info: 2023-01-11T10:55:44.582 [5069:1]: The following fields in LOAD are missing: INTRPT
└ @ PowerSystems /Users/rithwikmylavarapu/.julia/packages/PowerSystems/KIUFb/src/parsers/pm_io/pti.jl:1227
┌ Info: 2023-01-11T10:55:44.582 [5069:1]: The following fields in LOAD are missing: INTRPT
└ @ PowerSystems /Users/rithwikmylavarapu/.julia/packages/PowerSystems/KIUFb/src/parsers/pm_io/pti.jl:1227
┌ Info: 2023-01-11T10:55:44.582 [5069:1]: The following fields in LOAD are missing: INTRPT
└ @ PowerSystems /Users/rithwikmylavarapu/.julia/packages/PowerSystems/KIUFb/src/parsers/pm_io/pti.jl:1227
┌ Info: 2023-01-11T10:55:44.582 [5069:1]: The following fields in LOAD are missing: INTRPT
└ @ PowerSystems /Users/rithwikmylavarapu/.julia/packages/PowerSystems/KIUFb/src/parsers/pm_io/pti.jl:1227
┌ Info: 2023-01-11T10:55:44.582 [5069:1]: The following fields in LOAD are missing: INTRPT
└ @ PowerSystems /Users/rithwikmylavarapu/.julia/packages/PowerSystems/KIUFb/src/parsers/pm_io/pti.jl:1227
┌ Info: 2023-01-11T10:55:44.582 [5069:1]: The following fields in LOAD are missing: INTRPT
└ @ PowerSystems /Users/rithwikmylavarapu/.julia/packages/PowerSystems/KIUFb/src/parsers/pm_io/pti.jl:1227
┌ Info: 2023-01-11T10:55:44.583 [5069:1]: The following fields in LOAD are missing: INTRPT
└ @ PowerSystems /Users/rithwikmylavarapu/.julia/packages/PowerSystems/KIUFb/src/parsers/pm_io/pti.jl:1227
┌ Info: 2023-01-11T10:55:44.583 [5069:1]: The following fields in LOAD are missing: INTRPT
└ @ PowerSystems /Users/rithwikmylavarapu/.julia/packages/PowerSystems/KIUFb/src/parsers/pm_io/pti.jl:1227
┌ Info: 2023-01-11T10:55:44.583 [5069:1]: The following fields in LOAD are missing: INTRPT
└ @ PowerSystems /Users/rithwikmylavarapu/.julia/packages/PowerSystems/KIUFb/src/parsers/pm_io/pti.jl:1227
┌ Info: 2023-01-11T10:55:44.583 [5069:1]: The following fields in LOAD are missing: INTRPT
└ @ PowerSystems /Users/rithwikmylavarapu/.julia/packages/PowerSystems/KIUFb/src/parsers/pm_io/pti.jl:1227
┌ Info: 2023-01-11T10:55:44.583 [5069:1]: The following fields in LOAD are missing: INTRPT
└ @ PowerSystems /Users/rithwikmylavarapu/.julia/packages/PowerSystems/KIUFb/src/parsers/pm_io/pti.jl:1227
┌ Info: 2023-01-11T10:55:44.583 [5069:1]: The following fields in LOAD are missing: INTRPT
└ @ PowerSystems /Users/rithwikmylavarapu/.julia/packages/PowerSystems/KIUFb/src/parsers/pm_io/pti.jl:1227
┌ Info: 2023-01-11T10:55:44.583 [5069:1]: The following fields in LOAD are missing: INTRPT
└ @ PowerSystems /Users/rithwikmylavarapu/.julia/packages/PowerSystems/KIUFb/src/parsers/pm_io/pti.jl:1227
┌ Info: 2023-01-11T10:55:44.583 [5069:1]: The following fields in LOAD are missing: INTRPT
└ @ PowerSystems /Users/rithwikmylavarapu/.julia/packages/PowerSystems/KIUFb/src/parsers/pm_io/pti.jl:1227
┌ Info: 2023-01-11T10:55:44.583 [5069:1]: The following fields in LOAD are missing: INTRPT
└ @ PowerSystems /Users/rithwikmylavarapu/.julia/packages/PowerSystems/KIUFb/src/parsers/pm_io/pti.jl:1227
┌ Info: 2023-01-11T10:55:44.583 [5069:1]: The following fields in LOAD are missing: INTRPT
└ @ PowerSystems /Users/rithwikmylavarapu/.julia/packages/PowerSystems/KIUFb/src/parsers/pm_io/pti.jl:1227
┌ Info: 2023-01-11T10:55:44.583 [5069:1]: The following fields in LOAD are missing: INTRPT
└ @ PowerSystems /Users/rithwikmylavarapu/.julia/packages/PowerSystems/KIUFb/src/parsers/pm_io/pti.jl:1227
┌ Info: 2023-01-11T10:55:44.583 [5069:1]: The following fields in LOAD are missing: INTRPT
└ @ PowerSystems /Users/rithwikmylavarapu/.julia/packages/PowerSystems/KIUFb/src/parsers/pm_io/pti.jl:1227
┌ Info: 2023-01-11T10:55:44.583 [5069:1]: The following fields in LOAD are missing: INTRPT
└ @ PowerSystems /Users/rithwikmylavarapu/.julia/packages/PowerSystems/KIUFb/src/parsers/pm_io/pti.jl:1227
┌ Info: 2023-01-11T10:55:44.583 [5069:1]: The following fields in LOAD are missing: INTRPT
└ @ PowerSystems /Users/rithwikmylavarapu/.julia/packages/PowerSystems/KIUFb/src/parsers/pm_io/pti.jl:1227
┌ Info: 2023-01-11T10:55:44.583 [5069:1]: The following fields in LOAD are missing: INTRPT
└ @ PowerSystems /Users/rithwikmylavarapu/.julia/packages/PowerSystems/KIUFb/src/parsers/pm_io/pti.jl:1227
┌ Info: 2023-01-11T10:55:44.583 [5069:1]: The following fields in LOAD are missing: INTRPT
└ @ PowerSystems /Users/rithwikmylavarapu/.julia/packages/PowerSystems/KIUFb/src/parsers/pm_io/pti.jl:1227
┌ Info: 2023-01-11T10:55:44.583 [5069:1]: The following fields in LOAD are missing: INTRPT
└ @ PowerSystems /Users/rithwikmylavarapu/.julia/packages/PowerSystems/KIUFb/src/parsers/pm_io/pti.jl:1227
┌ Info: 2023-01-11T10:55:44.583 [5069:1]: The following fields in LOAD are missing: INTRPT
└ @ PowerSystems /Users/rithwikmylavarapu/.julia/packages/PowerSystems/KIUFb/src/parsers/pm_io/pti.jl:1227
┌ Info: 2023-01-11T10:55:44.583 [5069:1]: The following fields in LOAD are missing: INTRPT
└ @ PowerSystems /Users/rithwikmylavarapu/.julia/packages/PowerSystems/KIUFb/src/parsers/pm_io/pti.jl:1227
┌ Info: 2023-01-11T10:55:44.583 [5069:1]: The following fields in LOAD are missing: INTRPT
└ @ PowerSystems /Users/rithwikmylavarapu/.julia/packages/PowerSystems/KIUFb/src/parsers/pm_io/pti.jl:1227
┌ Info: 2023-01-11T10:55:44.590 [5069:1]: The following fields in TRANSFORMER are missing: VECGRP
└ @ PowerSystems /Users/rithwikmylavarapu/.julia/packages/PowerSystems/KIUFb/src/parsers/pm_io/pti.jl:1227
┌ Info: 2023-01-11T10:55:44.590 [5069:1]: The following fields in TRANSFORMER TWO-WINDING LINE 2 are missing: CNXA1
└ @ PowerSystems /Users/rithwikmylavarapu/.julia/packages/PowerSystems/KIUFb/src/parsers/pm_io/pti.jl:1227
┌ Info: 2023-01-11T10:55:44.591 [5069:1]: The following fields in TRANSFORMER are missing: VECGRP
└ @ PowerSystems /Users/rithwikmylavarapu/.julia/packages/PowerSystems/KIUFb/src/parsers/pm_io/pti.jl:1227
┌ Info: 2023-01-11T10:55:44.591 [5069:1]: The following fields in TRANSFORMER TWO-WINDING LINE 2 are missing: CNXA1
└ @ PowerSystems /Users/rithwikmylavarapu/.julia/packages/PowerSystems/KIUFb/src/parsers/pm_io/pti.jl:1227
┌ Info: 2023-01-11T10:55:44.591 [5069:1]: The following fields in TRANSFORMER are missing: VECGRP
└ @ PowerSystems /Users/rithwikmylavarapu/.julia/packages/PowerSystems/KIUFb/src/parsers/pm_io/pti.jl:1227
┌ Info: 2023-01-11T10:55:44.591 [5069:1]: The following fields in TRANSFORMER TWO-WINDING LINE 2 are missing: CNXA1
└ @ PowerSystems /Users/rithwikmylavarapu/.julia/packages/PowerSystems/KIUFb/src/parsers/pm_io/pti.jl:1227
┌ Info: 2023-01-11T10:55:44.591 [5069:1]: The following fields in TRANSFORMER are missing: VECGRP
└ @ PowerSystems /Users/rithwikmylavarapu/.julia/packages/PowerSystems/KIUFb/src/parsers/pm_io/pti.jl:1227
┌ Info: 2023-01-11T10:55:44.591 [5069:1]: The following fields in TRANSFORMER TWO-WINDING LINE 2 are missing: CNXA1
└ @ PowerSystems /Users/rithwikmylavarapu/.julia/packages/PowerSystems/KIUFb/src/parsers/pm_io/pti.jl:1227
┌ Info: 2023-01-11T10:55:44.591 [5069:1]: The following fields in TRANSFORMER are missing: VECGRP
└ @ PowerSystems /Users/rithwikmylavarapu/.julia/packages/PowerSystems/KIUFb/src/parsers/pm_io/pti.jl:1227
┌ Info: 2023-01-11T10:55:44.591 [5069:1]: The following fields in TRANSFORMER TWO-WINDING LINE 2 are missing: CNXA1
└ @ PowerSystems /Users/rithwikmylavarapu/.julia/packages/PowerSystems/KIUFb/src/parsers/pm_io/pti.jl:1227
┌ Info: 2023-01-11T10:55:44.591 [5069:1]: The following fields in TRANSFORMER are missing: VECGRP
└ @ PowerSystems /Users/rithwikmylavarapu/.julia/packages/PowerSystems/KIUFb/src/parsers/pm_io/pti.jl:1227
┌ Info: 2023-01-11T10:55:44.591 [5069:1]: The following fields in TRANSFORMER TWO-WINDING LINE 2 are missing: CNXA1
└ @ PowerSystems /Users/rithwikmylavarapu/.julia/packages/PowerSystems/KIUFb/src/parsers/pm_io/pti.jl:1227
┌ Info: 2023-01-11T10:55:44.591 [5069:1]: The following fields in TRANSFORMER are missing: VECGRP
└ @ PowerSystems /Users/rithwikmylavarapu/.julia/packages/PowerSystems/KIUFb/src/parsers/pm_io/pti.jl:1227
┌ Info: 2023-01-11T10:55:44.591 [5069:1]: The following fields in TRANSFORMER TWO-WINDING LINE 2 are missing: CNXA1
└ @ PowerSystems /Users/rithwikmylavarapu/.julia/packages/PowerSystems/KIUFb/src/parsers/pm_io/pti.jl:1227
┌ Info: 2023-01-11T10:55:44.591 [5069:1]: The following fields in TRANSFORMER are missing: VECGRP
└ @ PowerSystems /Users/rithwikmylavarapu/.julia/packages/PowerSystems/KIUFb/src/parsers/pm_io/pti.jl:1227
┌ Info: 2023-01-11T10:55:44.591 [5069:1]: The following fields in TRANSFORMER TWO-WINDING LINE 2 are missing: CNXA1
└ @ PowerSystems /Users/rithwikmylavarapu/.julia/packages/PowerSystems/KIUFb/src/parsers/pm_io/pti.jl:1227
┌ Info: 2023-01-11T10:55:44.591 [5069:1]: The following fields in TRANSFORMER are missing: VECGRP
└ @ PowerSystems /Users/rithwikmylavarapu/.julia/packages/PowerSystems/KIUFb/src/parsers/pm_io/pti.jl:1227
┌ Info: 2023-01-11T10:55:44.592 [5069:1]: The following fields in TRANSFORMER TWO-WINDING LINE 2 are missing: CNXA1
└ @ PowerSystems /Users/rithwikmylavarapu/.julia/packages/PowerSystems/KIUFb/src/parsers/pm_io/pti.jl:1227
┌ Info: 2023-01-11T10:55:44.592 [5069:1]: The following fields in TRANSFORMER are missing: VECGRP
└ @ PowerSystems /Users/rithwikmylavarapu/.julia/packages/PowerSystems/KIUFb/src/parsers/pm_io/pti.jl:1227
┌ Info: 2023-01-11T10:55:44.592 [5069:1]: The following fields in TRANSFORMER TWO-WINDING LINE 2 are missing: CNXA1
└ @ PowerSystems /Users/rithwikmylavarapu/.julia/packages/PowerSystems/KIUFb/src/parsers/pm_io/pti.jl:1227
┌ Info: 2023-01-11T10:55:44.592 [5069:1]: The following fields in TRANSFORMER are missing: VECGRP
└ @ PowerSystems /Users/rithwikmylavarapu/.julia/packages/PowerSystems/KIUFb/src/parsers/pm_io/pti.jl:1227
┌ Info: 2023-01-11T10:55:44.592 [5069:1]: The following fields in TRANSFORMER TWO-WINDING LINE 2 are missing: CNXA1
└ @ PowerSystems /Users/rithwikmylavarapu/.julia/packages/PowerSystems/KIUFb/src/parsers/pm_io/pti.jl:1227
┌ Info: 2023-01-11T10:55:44.592 [5069:1]: The following fields in TRANSFORMER are missing: VECGRP
└ @ PowerSystems /Users/rithwikmylavarapu/.julia/packages/PowerSystems/KIUFb/src/parsers/pm_io/pti.jl:1227
┌ Info: 2023-01-11T10:55:44.592 [5069:1]: The following fields in TRANSFORMER TWO-WINDING LINE 2 are missing: CNXA1
└ @ PowerSystems /Users/rithwikmylavarapu/.julia/packages/PowerSystems/KIUFb/src/parsers/pm_io/pti.jl:1227
┌ Info: 2023-01-11T10:55:44.592 [5069:1]: The following fields in TRANSFORMER are missing: VECGRP
└ @ PowerSystems /Users/rithwikmylavarapu/.julia/packages/PowerSystems/KIUFb/src/parsers/pm_io/pti.jl:1227
┌ Info: 2023-01-11T10:55:44.592 [5069:1]: The following fields in TRANSFORMER TWO-WINDING LINE 2 are missing: CNXA1
└ @ PowerSystems /Users/rithwikmylavarapu/.julia/packages/PowerSystems/KIUFb/src/parsers/pm_io/pti.jl:1227
┌ Info: 2023-01-11T10:55:44.592 [5069:1]: The following fields in TRANSFORMER are missing: VECGRP
└ @ PowerSystems /Users/rithwikmylavarapu/.julia/packages/PowerSystems/KIUFb/src/parsers/pm_io/pti.jl:1227
┌ Info: 2023-01-11T10:55:44.592 [5069:1]: The following fields in TRANSFORMER TWO-WINDING LINE 2 are missing: CNXA1
└ @ PowerSystems /Users/rithwikmylavarapu/.julia/packages/PowerSystems/KIUFb/src/parsers/pm_io/pti.jl:1227
┌ Info: 2023-01-11T10:55:44.592 [5069:1]: The following fields in TRANSFORMER are missing: VECGRP
└ @ PowerSystems /Users/rithwikmylavarapu/.julia/packages/PowerSystems/KIUFb/src/parsers/pm_io/pti.jl:1227
┌ Info: 2023-01-11T10:55:44.592 [5069:1]: The following fields in TRANSFORMER TWO-WINDING LINE 2 are missing: CNXA1
└ @ PowerSystems /Users/rithwikmylavarapu/.julia/packages/PowerSystems/KIUFb/src/parsers/pm_io/pti.jl:1227
┌ Info: 2023-01-11T10:55:44.592 [5069:1]: The following fields in TRANSFORMER are missing: VECGRP
└ @ PowerSystems /Users/rithwikmylavarapu/.julia/packages/PowerSystems/KIUFb/src/parsers/pm_io/pti.jl:1227
┌ Info: 2023-01-11T10:55:44.592 [5069:1]: The following fields in TRANSFORMER TWO-WINDING LINE 2 are missing: CNXA1
└ @ PowerSystems /Users/rithwikmylavarapu/.julia/packages/PowerSystems/KIUFb/src/parsers/pm_io/pti.jl:1227
┌ Info: 2023-01-11T10:55:44.593 [5069:1]: The following fields in TRANSFORMER are missing: VECGRP
└ @ PowerSystems /Users/rithwikmylavarapu/.julia/packages/PowerSystems/KIUFb/src/parsers/pm_io/pti.jl:1227
┌ Info: 2023-01-11T10:55:44.593 [5069:1]: The following fields in TRANSFORMER TWO-WINDING LINE 2 are missing: CNXA1
└ @ PowerSystems /Users/rithwikmylavarapu/.julia/packages/PowerSystems/KIUFb/src/parsers/pm_io/pti.jl:1227
┌ Info: 2023-01-11T10:55:44.593 [5069:1]: The following fields in TRANSFORMER are missing: VECGRP
└ @ PowerSystems /Users/rithwikmylavarapu/.julia/packages/PowerSystems/KIUFb/src/parsers/pm_io/pti.jl:1227
┌ Info: 2023-01-11T10:55:44.593 [5069:1]: The following fields in TRANSFORMER TWO-WINDING LINE 2 are missing: CNXA1
└ @ PowerSystems /Users/rithwikmylavarapu/.julia/packages/PowerSystems/KIUFb/src/parsers/pm_io/pti.jl:1227
┌ Info: 2023-01-11T10:55:44.593 [5069:1]: The following fields in TRANSFORMER are missing: VECGRP
└ @ PowerSystems /Users/rithwikmylavarapu/.julia/packages/PowerSystems/KIUFb/src/parsers/pm_io/pti.jl:1227
┌ Info: 2023-01-11T10:55:44.593 [5069:1]: The following fields in TRANSFORMER TWO-WINDING LINE 2 are missing: CNXA1
└ @ PowerSystems /Users/rithwikmylavarapu/.julia/packages/PowerSystems/KIUFb/src/parsers/pm_io/pti.jl:1227
┌ Info: 2023-01-11T10:55:44.593 [5069:1]: The following fields in TRANSFORMER are missing: VECGRP
└ @ PowerSystems /Users/rithwikmylavarapu/.julia/packages/PowerSystems/KIUFb/src/parsers/pm_io/pti.jl:1227
┌ Info: 2023-01-11T10:55:44.593 [5069:1]: The following fields in TRANSFORMER TWO-WINDING LINE 2 are missing: CNXA1
└ @ PowerSystems /Users/rithwikmylavarapu/.julia/packages/PowerSystems/KIUFb/src/parsers/pm_io/pti.jl:1227
┌ Info: 2023-01-11T10:55:44.593 [5069:1]: The following fields in TRANSFORMER are missing: VECGRP
└ @ PowerSystems /Users/rithwikmylavarapu/.julia/packages/PowerSystems/KIUFb/src/parsers/pm_io/pti.jl:1227
┌ Info: 2023-01-11T10:55:44.593 [5069:1]: The following fields in TRANSFORMER TWO-WINDING LINE 2 are missing: CNXA1
└ @ PowerSystems /Users/rithwikmylavarapu/.julia/packages/PowerSystems/KIUFb/src/parsers/pm_io/pti.jl:1227
┌ Info: 2023-01-11T10:55:44.593 [5069:1]: The following fields in TRANSFORMER are missing: VECGRP
└ @ PowerSystems /Users/rithwikmylavarapu/.julia/packages/PowerSystems/KIUFb/src/parsers/pm_io/pti.jl:1227
┌ Info: 2023-01-11T10:55:44.593 [5069:1]: The following fields in TRANSFORMER TWO-WINDING LINE 2 are missing: CNXA1
└ @ PowerSystems /Users/rithwikmylavarapu/.julia/packages/PowerSystems/KIUFb/src/parsers/pm_io/pti.jl:1227
┌ Info: 2023-01-11T10:55:44.593 [5069:1]: The following fields in TRANSFORMER are missing: VECGRP
└ @ PowerSystems /Users/rithwikmylavarapu/.julia/packages/PowerSystems/KIUFb/src/parsers/pm_io/pti.jl:1227
┌ Info: 2023-01-11T10:55:44.593 [5069:1]: The following fields in TRANSFORMER TWO-WINDING LINE 2 are missing: CNXA1
└ @ PowerSystems /Users/rithwikmylavarapu/.julia/packages/PowerSystems/KIUFb/src/parsers/pm_io/pti.jl:1227
┌ Info: 2023-01-11T10:55:44.594 [5069:1]: The following fields in TRANSFORMER are missing: VECGRP
└ @ PowerSystems /Users/rithwikmylavarapu/.julia/packages/PowerSystems/KIUFb/src/parsers/pm_io/pti.jl:1227
┌ Info: 2023-01-11T10:55:44.594 [5069:1]: The following fields in TRANSFORMER TWO-WINDING LINE 2 are missing: CNXA1
└ @ PowerSystems /Users/rithwikmylavarapu/.julia/packages/PowerSystems/KIUFb/src/parsers/pm_io/pti.jl:1227
┌ Info: 2023-01-11T10:55:44.594 [5069:1]: The following fields in TRANSFORMER are missing: VECGRP
└ @ PowerSystems /Users/rithwikmylavarapu/.julia/packages/PowerSystems/KIUFb/src/parsers/pm_io/pti.jl:1227
┌ Info: 2023-01-11T10:55:44.594 [5069:1]: The following fields in TRANSFORMER TWO-WINDING LINE 2 are missing: CNXA1
└ @ PowerSystems /Users/rithwikmylavarapu/.julia/packages/PowerSystems/KIUFb/src/parsers/pm_io/pti.jl:1227
┌ Info: 2023-01-11T10:55:44.594 [5069:1]: The following fields in TRANSFORMER are missing: VECGRP
└ @ PowerSystems /Users/rithwikmylavarapu/.julia/packages/PowerSystems/KIUFb/src/parsers/pm_io/pti.jl:1227
┌ Info: 2023-01-11T10:55:44.594 [5069:1]: The following fields in TRANSFORMER TWO-WINDING LINE 2 are missing: CNXA1
└ @ PowerSystems /Users/rithwikmylavarapu/.julia/packages/PowerSystems/KIUFb/src/parsers/pm_io/pti.jl:1227
┌ Info: 2023-01-11T10:55:44.594 [5069:1]: The following fields in TRANSFORMER are missing: VECGRP
└ @ PowerSystems /Users/rithwikmylavarapu/.julia/packages/PowerSystems/KIUFb/src/parsers/pm_io/pti.jl:1227
┌ Info: 2023-01-11T10:55:44.594 [5069:1]: The following fields in TRANSFORMER TWO-WINDING LINE 2 are missing: CNXA1
└ @ PowerSystems /Users/rithwikmylavarapu/.julia/packages/PowerSystems/KIUFb/src/parsers/pm_io/pti.jl:1227
┌ Info: 2023-01-11T10:55:44.594 [5069:1]: The following fields in TRANSFORMER are missing: VECGRP
└ @ PowerSystems /Users/rithwikmylavarapu/.julia/packages/PowerSystems/KIUFb/src/parsers/pm_io/pti.jl:1227
┌ Info: 2023-01-11T10:55:44.594 [5069:1]: The following fields in TRANSFORMER TWO-WINDING LINE 2 are missing: CNXA1
└ @ PowerSystems /Users/rithwikmylavarapu/.julia/packages/PowerSystems/KIUFb/src/parsers/pm_io/pti.jl:1227
┌ Info: 2023-01-11T10:55:44.594 [5069:1]: The following fields in TRANSFORMER are missing: VECGRP
└ @ PowerSystems /Users/rithwikmylavarapu/.julia/packages/PowerSystems/KIUFb/src/parsers/pm_io/pti.jl:1227
┌ Info: 2023-01-11T10:55:44.594 [5069:1]: The following fields in TRANSFORMER TWO-WINDING LINE 2 are missing: CNXA1
└ @ PowerSystems /Users/rithwikmylavarapu/.julia/packages/PowerSystems/KIUFb/src/parsers/pm_io/pti.jl:1227
┌ Info: 2023-01-11T10:55:44.594 [5069:1]: The following fields in TRANSFORMER are missing: VECGRP
└ @ PowerSystems /Users/rithwikmylavarapu/.julia/packages/PowerSystems/KIUFb/src/parsers/pm_io/pti.jl:1227
┌ Info: 2023-01-11T10:55:44.594 [5069:1]: The following fields in TRANSFORMER TWO-WINDING LINE 2 are missing: CNXA1
└ @ PowerSystems /Users/rithwikmylavarapu/.julia/packages/PowerSystems/KIUFb/src/parsers/pm_io/pti.jl:1227
┌ Info: 2023-01-11T10:55:44.595 [5069:1]: The following fields in TRANSFORMER are missing: VECGRP
└ @ PowerSystems /Users/rithwikmylavarapu/.julia/packages/PowerSystems/KIUFb/src/parsers/pm_io/pti.jl:1227
┌ Info: 2023-01-11T10:55:44.595 [5069:1]: The following fields in TRANSFORMER TWO-WINDING LINE 2 are missing: CNXA1
└ @ PowerSystems /Users/rithwikmylavarapu/.julia/packages/PowerSystems/KIUFb/src/parsers/pm_io/pti.jl:1227
┌ Info: 2023-01-11T10:55:44.595 [5069:1]: The following fields in TRANSFORMER are missing: VECGRP
└ @ PowerSystems /Users/rithwikmylavarapu/.julia/packages/PowerSystems/KIUFb/src/parsers/pm_io/pti.jl:1227
┌ Info: 2023-01-11T10:55:44.595 [5069:1]: The following fields in TRANSFORMER TWO-WINDING LINE 2 are missing: CNXA1
└ @ PowerSystems /Users/rithwikmylavarapu/.julia/packages/PowerSystems/KIUFb/src/parsers/pm_io/pti.jl:1227
┌ Info: 2023-01-11T10:55:44.595 [5069:1]: The following fields in TRANSFORMER are missing: VECGRP
└ @ PowerSystems /Users/rithwikmylavarapu/.julia/packages/PowerSystems/KIUFb/src/parsers/pm_io/pti.jl:1227
┌ Info: 2023-01-11T10:55:44.595 [5069:1]: The following fields in TRANSFORMER TWO-WINDING LINE 2 are missing: CNXA1
└ @ PowerSystems /Users/rithwikmylavarapu/.julia/packages/PowerSystems/KIUFb/src/parsers/pm_io/pti.jl:1227
┌ Info: 2023-01-11T10:55:44.595 [5069:1]: The following fields in TRANSFORMER are missing: VECGRP
└ @ PowerSystems /Users/rithwikmylavarapu/.julia/packages/PowerSystems/KIUFb/src/parsers/pm_io/pti.jl:1227
┌ Info: 2023-01-11T10:55:44.595 [5069:1]: The following fields in TRANSFORMER TWO-WINDING LINE 2 are missing: CNXA1
└ @ PowerSystems /Users/rithwikmylavarapu/.julia/packages/PowerSystems/KIUFb/src/parsers/pm_io/pti.jl:1227
┌ Info: 2023-01-11T10:55:44.595 [5069:1]: The following fields in TRANSFORMER are missing: VECGRP
└ @ PowerSystems /Users/rithwikmylavarapu/.julia/packages/PowerSystems/KIUFb/src/parsers/pm_io/pti.jl:1227
┌ Info: 2023-01-11T10:55:44.595 [5069:1]: The following fields in TRANSFORMER TWO-WINDING LINE 2 are missing: CNXA1
└ @ PowerSystems /Users/rithwikmylavarapu/.julia/packages/PowerSystems/KIUFb/src/parsers/pm_io/pti.jl:1227
┌ Info: 2023-01-11T10:55:44.595 [5069:1]: The following fields in TRANSFORMER are missing: VECGRP
└ @ PowerSystems /Users/rithwikmylavarapu/.julia/packages/PowerSystems/KIUFb/src/parsers/pm_io/pti.jl:1227
┌ Info: 2023-01-11T10:55:44.595 [5069:1]: The following fields in TRANSFORMER TWO-WINDING LINE 2 are missing: CNXA1
└ @ PowerSystems /Users/rithwikmylavarapu/.julia/packages/PowerSystems/KIUFb/src/parsers/pm_io/pti.jl:1227
┌ Info: 2023-01-11T10:55:44.595 [5069:1]: The following fields in TRANSFORMER are missing: VECGRP
└ @ PowerSystems /Users/rithwikmylavarapu/.julia/packages/PowerSystems/KIUFb/src/parsers/pm_io/pti.jl:1227
┌ Info: 2023-01-11T10:55:44.595 [5069:1]: The following fields in TRANSFORMER TWO-WINDING LINE 2 are missing: CNXA1
└ @ PowerSystems /Users/rithwikmylavarapu/.julia/packages/PowerSystems/KIUFb/src/parsers/pm_io/pti.jl:1227
┌ Info: 2023-01-11T10:55:44.595 [5069:1]: The following fields in TRANSFORMER are missing: VECGRP
└ @ PowerSystems /Users/rithwikmylavarapu/.julia/packages/PowerSystems/KIUFb/src/parsers/pm_io/pti.jl:1227
┌ Info: 2023-01-11T10:55:44.595 [5069:1]: The following fields in TRANSFORMER TWO-WINDING LINE 2 are missing: CNXA1
└ @ PowerSystems /Users/rithwikmylavarapu/.julia/packages/PowerSystems/KIUFb/src/parsers/pm_io/pti.jl:1227
┌ Info: 2023-01-11T10:55:44.596 [5069:1]: The following fields in TRANSFORMER are missing: VECGRP
└ @ PowerSystems /Users/rithwikmylavarapu/.julia/packages/PowerSystems/KIUFb/src/parsers/pm_io/pti.jl:1227
┌ Info: 2023-01-11T10:55:44.596 [5069:1]: The following fields in TRANSFORMER TWO-WINDING LINE 2 are missing: CNXA1
└ @ PowerSystems /Users/rithwikmylavarapu/.julia/packages/PowerSystems/KIUFb/src/parsers/pm_io/pti.jl:1227
┌ Info: 2023-01-11T10:55:44.596 [5069:1]: The following fields in TRANSFORMER are missing: VECGRP
└ @ PowerSystems /Users/rithwikmylavarapu/.julia/packages/PowerSystems/KIUFb/src/parsers/pm_io/pti.jl:1227
┌ Info: 2023-01-11T10:55:44.596 [5069:1]: The following fields in TRANSFORMER TWO-WINDING LINE 2 are missing: CNXA1
└ @ PowerSystems /Users/rithwikmylavarapu/.julia/packages/PowerSystems/KIUFb/src/parsers/pm_io/pti.jl:1227
┌ Info: 2023-01-11T10:55:44.596 [5069:1]: The following fields in TRANSFORMER are missing: VECGRP
└ @ PowerSystems /Users/rithwikmylavarapu/.julia/packages/PowerSystems/KIUFb/src/parsers/pm_io/pti.jl:1227
┌ Info: 2023-01-11T10:55:44.596 [5069:1]: The following fields in TRANSFORMER TWO-WINDING LINE 2 are missing: CNXA1
└ @ PowerSystems /Users/rithwikmylavarapu/.julia/packages/PowerSystems/KIUFb/src/parsers/pm_io/pti.jl:1227
┌ Info: 2023-01-11T10:55:44.596 [5069:1]: The following fields in TRANSFORMER are missing: VECGRP
└ @ PowerSystems /Users/rithwikmylavarapu/.julia/packages/PowerSystems/KIUFb/src/parsers/pm_io/pti.jl:1227
┌ Info: 2023-01-11T10:55:44.596 [5069:1]: The following fields in TRANSFORMER TWO-WINDING LINE 2 are missing: CNXA1
└ @ PowerSystems /Users/rithwikmylavarapu/.julia/packages/PowerSystems/KIUFb/src/parsers/pm_io/pti.jl:1227
┌ Info: 2023-01-11T10:55:44.596 [5069:1]: The following fields in TRANSFORMER are missing: VECGRP
└ @ PowerSystems /Users/rithwikmylavarapu/.julia/packages/PowerSystems/KIUFb/src/parsers/pm_io/pti.jl:1227
┌ Info: 2023-01-11T10:55:44.596 [5069:1]: The following fields in TRANSFORMER TWO-WINDING LINE 2 are missing: CNXA1
└ @ PowerSystems /Users/rithwikmylavarapu/.julia/packages/PowerSystems/KIUFb/src/parsers/pm_io/pti.jl:1227
┌ Info: 2023-01-11T10:55:44.596 [5069:1]: The following fields in TRANSFORMER are missing: VECGRP
└ @ PowerSystems /Users/rithwikmylavarapu/.julia/packages/PowerSystems/KIUFb/src/parsers/pm_io/pti.jl:1227
┌ Info: 2023-01-11T10:55:44.596 [5069:1]: The following fields in TRANSFORMER TWO-WINDING LINE 2 are missing: CNXA1
└ @ PowerSystems /Users/rithwikmylavarapu/.julia/packages/PowerSystems/KIUFb/src/parsers/pm_io/pti.jl:1227
┌ Info: 2023-01-11T10:55:44.596 [5069:1]: The following fields in TRANSFORMER are missing: VECGRP
└ @ PowerSystems /Users/rithwikmylavarapu/.julia/packages/PowerSystems/KIUFb/src/parsers/pm_io/pti.jl:1227
┌ Info: 2023-01-11T10:55:44.596 [5069:1]: The following fields in TRANSFORMER TWO-WINDING LINE 2 are missing: CNXA1
└ @ PowerSystems /Users/rithwikmylavarapu/.julia/packages/PowerSystems/KIUFb/src/parsers/pm_io/pti.jl:1227
┌ Info: 2023-01-11T10:55:44.597 [5069:1]: The following fields in TRANSFORMER are missing: VECGRP
└ @ PowerSystems /Users/rithwikmylavarapu/.julia/packages/PowerSystems/KIUFb/src/parsers/pm_io/pti.jl:1227
┌ Info: 2023-01-11T10:55:44.597 [5069:1]: The following fields in TRANSFORMER TWO-WINDING LINE 2 are missing: CNXA1
└ @ PowerSystems /Users/rithwikmylavarapu/.julia/packages/PowerSystems/KIUFb/src/parsers/pm_io/pti.jl:1227
┌ Info: 2023-01-11T10:55:44.597 [5069:1]: The following fields in TRANSFORMER are missing: VECGRP
└ @ PowerSystems /Users/rithwikmylavarapu/.julia/packages/PowerSystems/KIUFb/src/parsers/pm_io/pti.jl:1227
┌ Info: 2023-01-11T10:55:44.597 [5069:1]: The following fields in TRANSFORMER TWO-WINDING LINE 2 are missing: CNXA1
└ @ PowerSystems /Users/rithwikmylavarapu/.julia/packages/PowerSystems/KIUFb/src/parsers/pm_io/pti.jl:1227
┌ Info: 2023-01-11T10:55:44.597 [5069:1]: The following fields in TRANSFORMER are missing: VECGRP
└ @ PowerSystems /Users/rithwikmylavarapu/.julia/packages/PowerSystems/KIUFb/src/parsers/pm_io/pti.jl:1227
┌ Info: 2023-01-11T10:55:44.597 [5069:1]: The following fields in TRANSFORMER TWO-WINDING LINE 2 are missing: CNXA1
└ @ PowerSystems /Users/rithwikmylavarapu/.julia/packages/PowerSystems/KIUFb/src/parsers/pm_io/pti.jl:1227
┌ Info: 2023-01-11T10:55:44.614 [5069:1]: angmin and angmax values are 0, widening these values on branch 32 to +/- 60.0 deg.
└ @ PowerSystems /Users/rithwikmylavarapu/.julia/packages/PowerSystems/KIUFb/src/parsers/pm_io/data.jl:1077
┌ Info: 2023-01-11T10:55:44.615 [5069:1]: angmin and angmax values are 0, widening these values on branch 29 to +/- 60.0 deg.
└ @ PowerSystems /Users/rithwikmylavarapu/.julia/packages/PowerSystems/KIUFb/src/parsers/pm_io/data.jl:1077
┌ Info: 2023-01-11T10:55:44.615 [5069:1]: angmin and angmax values are 0, widening these values on branch 1 to +/- 60.0 deg.
└ @ PowerSystems /Users/rithwikmylavarapu/.julia/packages/PowerSystems/KIUFb/src/parsers/pm_io/data.jl:1077
┌ Info: 2023-01-11T10:55:44.615 [5069:1]: angmin and angmax values are 0, widening these values on branch 54 to +/- 60.0 deg.
└ @ PowerSystems /Users/rithwikmylavarapu/.julia/packages/PowerSystems/KIUFb/src/parsers/pm_io/data.jl:1077
┌ Info: 2023-01-11T10:55:44.615 [5069:1]: angmin and angmax values are 0, widening these values on branch 78 to +/- 60.0 deg.
└ @ PowerSystems /Users/rithwikmylavarapu/.julia/packages/PowerSystems/KIUFb/src/parsers/pm_io/data.jl:1077
┌ Info: 2023-01-11T10:55:44.615 [5069:1]: angmin and angmax values are 0, widening these values on branch 81 to +/- 60.0 deg.
└ @ PowerSystems /Users/rithwikmylavarapu/.julia/packages/PowerSystems/KIUFb/src/parsers/pm_io/data.jl:1077
┌ Info: 2023-01-11T10:55:44.615 [5069:1]: angmin and angmax values are 0, widening these values on branch 101 to +/- 60.0 deg.
└ @ PowerSystems /Users/rithwikmylavarapu/.julia/packages/PowerSystems/KIUFb/src/parsers/pm_io/data.jl:1077
┌ Info: 2023-01-11T10:55:44.615 [5069:1]: angmin and angmax values are 0, widening these values on branch 2 to +/- 60.0 deg.
└ @ PowerSystems /Users/rithwikmylavarapu/.julia/packages/PowerSystems/KIUFb/src/parsers/pm_io/data.jl:1077
┌ Info: 2023-01-11T10:55:44.615 [5069:1]: angmin and angmax values are 0, widening these values on branch 105 to +/- 60.0 deg.
└ @ PowerSystems /Users/rithwikmylavarapu/.julia/packages/PowerSystems/KIUFb/src/parsers/pm_io/data.jl:1077
┌ Info: 2023-01-11T10:55:44.615 [5069:1]: angmin and angmax values are 0, widening these values on branch 109 to +/- 60.0 deg.
└ @ PowerSystems /Users/rithwikmylavarapu/.julia/packages/PowerSystems/KIUFb/src/parsers/pm_io/data.jl:1077
┌ Info: 2023-01-11T10:55:44.615 [5069:1]: angmin and angmax values are 0, widening these values on branch 74 to +/- 60.0 deg.
└ @ PowerSystems /Users/rithwikmylavarapu/.julia/packages/PowerSystems/KIUFb/src/parsers/pm_io/data.jl:1077
┌ Info: 2023-01-11T10:55:44.615 [5069:1]: angmin and angmax values are 0, widening these values on branch 41 to +/- 60.0 deg.
└ @ PowerSystems /Users/rithwikmylavarapu/.julia/packages/PowerSystems/KIUFb/src/parsers/pm_io/data.jl:1077
┌ Info: 2023-01-11T10:55:44.615 [5069:1]: angmin and angmax values are 0, widening these values on branch 132 to +/- 60.0 deg.
└ @ PowerSystems /Users/rithwikmylavarapu/.julia/packages/PowerSystems/KIUFb/src/parsers/pm_io/data.jl:1077
┌ Info: 2023-01-11T10:55:44.615 [5069:1]: angmin and angmax values are 0, widening these values on branch 153 to +/- 60.0 deg.
└ @ PowerSystems /Users/rithwikmylavarapu/.julia/packages/PowerSystems/KIUFb/src/parsers/pm_io/data.jl:1077
┌ Info: 2023-01-11T10:55:44.615 [5069:1]: angmin and angmax values are 0, widening these values on branch 65 to +/- 60.0 deg.
└ @ PowerSystems /Users/rithwikmylavarapu/.julia/packages/PowerSystems/KIUFb/src/parsers/pm_io/data.jl:1077
┌ Info: 2023-01-11T10:55:44.615 [5069:1]: angmin and angmax values are 0, widening these values on branch 155 to +/- 60.0 deg.
└ @ PowerSystems /Users/rithwikmylavarapu/.julia/packages/PowerSystems/KIUFb/src/parsers/pm_io/data.jl:1077
┌ Info: 2023-01-11T10:55:44.615 [5069:1]: angmin and angmax values are 0, widening these values on branch 51 to +/- 60.0 deg.
└ @ PowerSystems /Users/rithwikmylavarapu/.julia/packages/PowerSystems/KIUFb/src/parsers/pm_io/data.jl:1077
┌ Info: 2023-01-11T10:55:44.615 [5069:1]: angmin and angmax values are 0, widening these values on branch 53 to +/- 60.0 deg.
└ @ PowerSystems /Users/rithwikmylavarapu/.julia/packages/PowerSystems/KIUFb/src/parsers/pm_io/data.jl:1077
┌ Info: 2023-01-11T10:55:44.615 [5069:1]: angmin and angmax values are 0, widening these values on branch 106 to +/- 60.0 deg.
└ @ PowerSystems /Users/rithwikmylavarapu/.julia/packages/PowerSystems/KIUFb/src/parsers/pm_io/data.jl:1077
┌ Info: 2023-01-11T10:55:44.615 [5069:1]: angmin and angmax values are 0, widening these values on branch 119 to +/- 60.0 deg.
└ @ PowerSystems /Users/rithwikmylavarapu/.julia/packages/PowerSystems/KIUFb/src/parsers/pm_io/data.jl:1077
┌ Info: 2023-01-11T10:55:44.615 [5069:1]: angmin and angmax values are 0, widening these values on branch 27 to +/- 60.0 deg.
└ @ PowerSystems /Users/rithwikmylavarapu/.julia/packages/PowerSystems/KIUFb/src/parsers/pm_io/data.jl:1077
┌ Info: 2023-01-11T10:55:44.615 [5069:1]: angmin and angmax values are 0, widening these values on branch 75 to +/- 60.0 deg.
└ @ PowerSystems /Users/rithwikmylavarapu/.julia/packages/PowerSystems/KIUFb/src/parsers/pm_io/data.jl:1077
┌ Info: 2023-01-11T10:55:44.615 [5069:1]: angmin and angmax values are 0, widening these values on branch 42 to +/- 60.0 deg.
└ @ PowerSystems /Users/rithwikmylavarapu/.julia/packages/PowerSystems/KIUFb/src/parsers/pm_io/data.jl:1077
┌ Info: 2023-01-11T10:55:44.615 [5069:1]: angmin and angmax values are 0, widening these values on branch 33 to +/- 60.0 deg.
└ @ PowerSystems /Users/rithwikmylavarapu/.julia/packages/PowerSystems/KIUFb/src/parsers/pm_io/data.jl:1077
┌ Info: 2023-01-11T10:55:44.615 [5069:1]: angmin and angmax values are 0, widening these values on branch 28 to +/- 60.0 deg.
└ @ PowerSystems /Users/rithwikmylavarapu/.julia/packages/PowerSystems/KIUFb/src/parsers/pm_io/data.jl:1077
┌ Info: 2023-01-11T10:55:44.615 [5069:1]: angmin and angmax values are 0, widening these values on branch 50 to +/- 60.0 deg.
└ @ PowerSystems /Users/rithwikmylavarapu/.julia/packages/PowerSystems/KIUFb/src/parsers/pm_io/data.jl:1077
┌ Info: 2023-01-11T10:55:44.615 [5069:1]: angmin and angmax values are 0, widening these values on branch 52 to +/- 60.0 deg.
└ @ PowerSystems /Users/rithwikmylavarapu/.julia/packages/PowerSystems/KIUFb/src/parsers/pm_io/data.jl:1077
┌ Info: 2023-01-11T10:55:44.615 [5069:1]: angmin and angmax values are 0, widening these values on branch 159 to +/- 60.0 deg.
└ @ PowerSystems /Users/rithwikmylavarapu/.julia/packages/PowerSystems/KIUFb/src/parsers/pm_io/data.jl:1077
┌ Info: 2023-01-11T10:55:44.615 [5069:1]: angmin and angmax values are 0, widening these values on branch 111 to +/- 60.0 deg.
└ @ PowerSystems /Users/rithwikmylavarapu/.julia/packages/PowerSystems/KIUFb/src/parsers/pm_io/data.jl:1077
┌ Info: 2023-01-11T10:55:44.615 [5069:1]: angmin and angmax values are 0, widening these values on branch 162 to +/- 60.0 deg.
└ @ PowerSystems /Users/rithwikmylavarapu/.julia/packages/PowerSystems/KIUFb/src/parsers/pm_io/data.jl:1077
┌ Info: 2023-01-11T10:55:44.615 [5069:1]: angmin and angmax values are 0, widening these values on branch 63 to +/- 60.0 deg.
└ @ PowerSystems /Users/rithwikmylavarapu/.julia/packages/PowerSystems/KIUFb/src/parsers/pm_io/data.jl:1077
┌ Info: 2023-01-11T10:55:44.615 [5069:1]: angmin and angmax values are 0, widening these values on branch 121 to +/- 60.0 deg.
└ @ PowerSystems /Users/rithwikmylavarapu/.julia/packages/PowerSystems/KIUFb/src/parsers/pm_io/data.jl:1077
┌ Info: 2023-01-11T10:55:44.615 [5069:1]: angmin and angmax values are 0, widening these values on branch 115 to +/- 60.0 deg.
└ @ PowerSystems /Users/rithwikmylavarapu/.julia/packages/PowerSystems/KIUFb/src/parsers/pm_io/data.jl:1077
┌ Info: 2023-01-11T10:55:44.615 [5069:1]: angmin and angmax values are 0, widening these values on branch 141 to +/- 60.0 deg.
└ @ PowerSystems /Users/rithwikmylavarapu/.julia/packages/PowerSystems/KIUFb/src/parsers/pm_io/data.jl:1077
┌ Info: 2023-01-11T10:55:44.615 [5069:1]: angmin and angmax values are 0, widening these values on branch 92 to +/- 60.0 deg.
└ @ PowerSystems /Users/rithwikmylavarapu/.julia/packages/PowerSystems/KIUFb/src/parsers/pm_io/data.jl:1077
┌ Info: 2023-01-11T10:55:44.615 [5069:1]: angmin and angmax values are 0, widening these values on branch 88 to +/- 60.0 deg.
└ @ PowerSystems /Users/rithwikmylavarapu/.julia/packages/PowerSystems/KIUFb/src/parsers/pm_io/data.jl:1077
┌ Info: 2023-01-11T10:55:44.615 [5069:1]: angmin and angmax values are 0, widening these values on branch 93 to +/- 60.0 deg.
└ @ PowerSystems /Users/rithwikmylavarapu/.julia/packages/PowerSystems/KIUFb/src/parsers/pm_io/data.jl:1077
┌ Info: 2023-01-11T10:55:44.615 [5069:1]: angmin and angmax values are 0, widening these values on branch 26 to +/- 60.0 deg.
└ @ PowerSystems /Users/rithwikmylavarapu/.julia/packages/PowerSystems/KIUFb/src/parsers/pm_io/data.jl:1077
┌ Info: 2023-01-11T10:55:44.616 [5069:1]: angmin and angmax values are 0, widening these values on branch 10 to +/- 60.0 deg.
└ @ PowerSystems /Users/rithwikmylavarapu/.julia/packages/PowerSystems/KIUFb/src/parsers/pm_io/data.jl:1077
┌ Info: 2023-01-11T10:55:44.616 [5069:1]: angmin and angmax values are 0, widening these values on branch 120 to +/- 60.0 deg.
└ @ PowerSystems /Users/rithwikmylavarapu/.julia/packages/PowerSystems/KIUFb/src/parsers/pm_io/data.jl:1077
┌ Info: 2023-01-11T10:55:44.616 [5069:1]: angmin and angmax values are 0, widening these values on branch 77 to +/- 60.0 deg.
└ @ PowerSystems /Users/rithwikmylavarapu/.julia/packages/PowerSystems/KIUFb/src/parsers/pm_io/data.jl:1077
┌ Info: 2023-01-11T10:55:44.616 [5069:1]: angmin and angmax values are 0, widening these values on branch 24 to +/- 60.0 deg.
└ @ PowerSystems /Users/rithwikmylavarapu/.julia/packages/PowerSystems/KIUFb/src/parsers/pm_io/data.jl:1077
┌ Info: 2023-01-11T10:55:44.616 [5069:1]: angmin and angmax values are 0, widening these values on branch 87 to +/- 60.0 deg.
└ @ PowerSystems /Users/rithwikmylavarapu/.julia/packages/PowerSystems/KIUFb/src/parsers/pm_io/data.jl:1077
┌ Info: 2023-01-11T10:55:44.616 [5069:1]: angmin and angmax values are 0, widening these values on branch 117 to +/- 60.0 deg.
└ @ PowerSystems /Users/rithwikmylavarapu/.julia/packages/PowerSystems/KIUFb/src/parsers/pm_io/data.jl:1077
┌ Info: 2023-01-11T10:55:44.616 [5069:1]: angmin and angmax values are 0, widening these values on branch 58 to +/- 60.0 deg.
└ @ PowerSystems /Users/rithwikmylavarapu/.julia/packages/PowerSystems/KIUFb/src/parsers/pm_io/data.jl:1077
┌ Info: 2023-01-11T10:55:44.616 [5069:1]: angmin and angmax values are 0, widening these values on branch 25 to +/- 60.0 deg.
└ @ PowerSystems /Users/rithwikmylavarapu/.julia/packages/PowerSystems/KIUFb/src/parsers/pm_io/data.jl:1077
┌ Info: 2023-01-11T10:55:44.616 [5069:1]: angmin and angmax values are 0, widening these values on branch 114 to +/- 60.0 deg.
└ @ PowerSystems /Users/rithwikmylavarapu/.julia/packages/PowerSystems/KIUFb/src/parsers/pm_io/data.jl:1077
┌ Info: 2023-01-11T10:55:44.616 [5069:1]: angmin and angmax values are 0, widening these values on branch 23 to +/- 60.0 deg.
└ @ PowerSystems /Users/rithwikmylavarapu/.julia/packages/PowerSystems/KIUFb/src/parsers/pm_io/data.jl:1077
┌ Info: 2023-01-11T10:55:44.616 [5069:1]: angmin and angmax values are 0, widening these values on branch 160 to +/- 60.0 deg.
└ @ PowerSystems /Users/rithwikmylavarapu/.julia/packages/PowerSystems/KIUFb/src/parsers/pm_io/data.jl:1077
┌ Info: 2023-01-11T10:55:44.616 [5069:1]: angmin and angmax values are 0, widening these values on branch 154 to +/- 60.0 deg.
└ @ PowerSystems /Users/rithwikmylavarapu/.julia/packages/PowerSystems/KIUFb/src/parsers/pm_io/data.jl:1077
┌ Info: 2023-01-11T10:55:44.620 [5069:1]: this code only supports positive rate_a values, changing the value on branch 32 to 2078.1926
└ @ PowerSystems /Users/rithwikmylavarapu/.julia/packages/PowerSystems/KIUFb/src/parsers/pm_io/data.jl:1142
┌ Info: 2023-01-11T10:55:44.620 [5069:1]: this code only supports positive rate_a values, changing the value on branch 29 to 1293.3255
└ @ PowerSystems /Users/rithwikmylavarapu/.julia/packages/PowerSystems/KIUFb/src/parsers/pm_io/data.jl:1142
┌ Info: 2023-01-11T10:55:44.620 [5069:1]: this code only supports positive rate_a values, changing the value on branch 1 to 1760.481
└ @ PowerSystems /Users/rithwikmylavarapu/.julia/packages/PowerSystems/KIUFb/src/parsers/pm_io/data.jl:1142
┌ Info: 2023-01-11T10:55:44.620 [5069:1]: this code only supports positive rate_a values, changing the value on branch 54 to 2078.1926
└ @ PowerSystems /Users/rithwikmylavarapu/.julia/packages/PowerSystems/KIUFb/src/parsers/pm_io/data.jl:1142
┌ Info: 2023-01-11T10:55:44.620 [5069:1]: this code only supports positive rate_a values, changing the value on branch 78 to 737.1353
└ @ PowerSystems /Users/rithwikmylavarapu/.julia/packages/PowerSystems/KIUFb/src/parsers/pm_io/data.jl:1142
┌ Info: 2023-01-11T10:55:44.620 [5069:1]: this code only supports positive rate_a values, changing the value on branch 81 to 1192.1208
└ @ PowerSystems /Users/rithwikmylavarapu/.julia/packages/PowerSystems/KIUFb/src/parsers/pm_io/data.jl:1142
┌ Info: 2023-01-11T10:55:44.620 [5069:1]: this code only supports positive rate_a values, changing the value on branch 101 to 2078.1926
└ @ PowerSystems /Users/rithwikmylavarapu/.julia/packages/PowerSystems/KIUFb/src/parsers/pm_io/data.jl:1142
┌ Info: 2023-01-11T10:55:44.620 [5069:1]: this code only supports positive rate_a values, changing the value on branch 2 to 1293.3255
└ @ PowerSystems /Users/rithwikmylavarapu/.julia/packages/PowerSystems/KIUFb/src/parsers/pm_io/data.jl:1142
┌ Info: 2023-01-11T10:55:44.620 [5069:1]: this code only supports positive rate_a values, changing the value on branch 105 to 737.1353
└ @ PowerSystems /Users/rithwikmylavarapu/.julia/packages/PowerSystems/KIUFb/src/parsers/pm_io/data.jl:1142
┌ Info: 2023-01-11T10:55:44.620 [5069:1]: this code only supports positive rate_a values, changing the value on branch 109 to 2078.1926
└ @ PowerSystems /Users/rithwikmylavarapu/.julia/packages/PowerSystems/KIUFb/src/parsers/pm_io/data.jl:1142
┌ Info: 2023-01-11T10:55:44.620 [5069:1]: this code only supports positive rate_a values, changing the value on branch 74 to 2078.1926
└ @ PowerSystems /Users/rithwikmylavarapu/.julia/packages/PowerSystems/KIUFb/src/parsers/pm_io/data.jl:1142
┌ Info: 2023-01-11T10:55:44.620 [5069:1]: this code only supports positive rate_a values, changing the value on branch 41 to 1760.481
└ @ PowerSystems /Users/rithwikmylavarapu/.julia/packages/PowerSystems/KIUFb/src/parsers/pm_io/data.jl:1142
┌ Info: 2023-01-11T10:55:44.620 [5069:1]: this code only supports positive rate_a values, changing the value on branch 132 to 2064.8508
└ @ PowerSystems /Users/rithwikmylavarapu/.julia/packages/PowerSystems/KIUFb/src/parsers/pm_io/data.jl:1142
┌ Info: 2023-01-11T10:55:44.620 [5069:1]: this code only supports positive rate_a values, changing the value on branch 153 to 2064.8508
└ @ PowerSystems /Users/rithwikmylavarapu/.julia/packages/PowerSystems/KIUFb/src/parsers/pm_io/data.jl:1142
┌ Info: 2023-01-11T10:55:44.620 [5069:1]: this code only supports positive rate_a values, changing the value on branch 65 to 737.1353
└ @ PowerSystems /Users/rithwikmylavarapu/.julia/packages/PowerSystems/KIUFb/src/parsers/pm_io/data.jl:1142
┌ Info: 2023-01-11T10:55:44.620 [5069:1]: this code only supports positive rate_a values, changing the value on branch 155 to 1936.0041
└ @ PowerSystems /Users/rithwikmylavarapu/.julia/packages/PowerSystems/KIUFb/src/parsers/pm_io/data.jl:1142
┌ Info: 2023-01-11T10:55:44.620 [5069:1]: this code only supports positive rate_a values, changing the value on branch 51 to 2078.1926
└ @ PowerSystems /Users/rithwikmylavarapu/.julia/packages/PowerSystems/KIUFb/src/parsers/pm_io/data.jl:1142
┌ Info: 2023-01-11T10:55:44.620 [5069:1]: this code only supports positive rate_a values, changing the value on branch 53 to 2078.1926
└ @ PowerSystems /Users/rithwikmylavarapu/.julia/packages/PowerSystems/KIUFb/src/parsers/pm_io/data.jl:1142
┌ Info: 2023-01-11T10:55:44.620 [5069:1]: this code only supports positive rate_a values, changing the value on branch 106 to 679.3112
└ @ PowerSystems /Users/rithwikmylavarapu/.julia/packages/PowerSystems/KIUFb/src/parsers/pm_io/data.jl:1142
┌ Info: 2023-01-11T10:55:44.620 [5069:1]: this code only supports positive rate_a values, changing the value on branch 119 to 1936.0041
└ @ PowerSystems /Users/rithwikmylavarapu/.julia/packages/PowerSystems/KIUFb/src/parsers/pm_io/data.jl:1142
┌ Info: 2023-01-11T10:55:44.620 [5069:1]: this code only supports positive rate_a values, changing the value on branch 27 to 2078.1926
└ @ PowerSystems /Users/rithwikmylavarapu/.julia/packages/PowerSystems/KIUFb/src/parsers/pm_io/data.jl:1142
┌ Info: 2023-01-11T10:55:44.620 [5069:1]: this code only supports positive rate_a values, changing the value on branch 75 to 1192.1208
└ @ PowerSystems /Users/rithwikmylavarapu/.julia/packages/PowerSystems/KIUFb/src/parsers/pm_io/data.jl:1142
┌ Info: 2023-01-11T10:55:44.620 [5069:1]: this code only supports positive rate_a values, changing the value on branch 42 to 1293.3255
└ @ PowerSystems /Users/rithwikmylavarapu/.julia/packages/PowerSystems/KIUFb/src/parsers/pm_io/data.jl:1142
┌ Info: 2023-01-11T10:55:44.620 [5069:1]: this code only supports positive rate_a values, changing the value on branch 33 to 1192.1208
└ @ PowerSystems /Users/rithwikmylavarapu/.julia/packages/PowerSystems/KIUFb/src/parsers/pm_io/data.jl:1142
┌ Info: 2023-01-11T10:55:44.620 [5069:1]: this code only supports positive rate_a values, changing the value on branch 28 to 1760.481
└ @ PowerSystems /Users/rithwikmylavarapu/.julia/packages/PowerSystems/KIUFb/src/parsers/pm_io/data.jl:1142
┌ Info: 2023-01-11T10:55:44.620 [5069:1]: this code only supports positive rate_a values, changing the value on branch 50 to 679.3112
└ @ PowerSystems /Users/rithwikmylavarapu/.julia/packages/PowerSystems/KIUFb/src/parsers/pm_io/data.jl:1142
┌ Info: 2023-01-11T10:55:44.620 [5069:1]: this code only supports positive rate_a values, changing the value on branch 52 to 1192.1208
└ @ PowerSystems /Users/rithwikmylavarapu/.julia/packages/PowerSystems/KIUFb/src/parsers/pm_io/data.jl:1142
┌ Info: 2023-01-11T10:55:44.621 [5069:1]: this code only supports positive rate_a values, changing the value on branch 159 to 2064.8508
└ @ PowerSystems /Users/rithwikmylavarapu/.julia/packages/PowerSystems/KIUFb/src/parsers/pm_io/data.jl:1142
┌ Info: 2023-01-11T10:55:44.621 [5069:1]: this code only supports positive rate_a values, changing the value on branch 111 to 2078.1926
[...]
│    Pre-initialization                       1    186ms    0.6%   54.3MiB    0.4%
│      Power Flow solution                    1   36.0ms    0.1%   32.8MiB    0.3%
│      Initialize Static Injectors            1   9.88μs    0.0%   3.83KiB    0.0%
│      Initialize Dynamic Injectors           1    148ms    0.5%   21.0MiB    0.2%
│      Initialize Dynamic Branches            1   1.39ms    0.0%    534KiB    0.0%
│    Calculate Jacobian                       1    18.8s   65.2%   10.7GiB   89.0%
│    Make Model Function                      1   69.2μs    0.0%   45.1KiB    0.0%
│    Initial Condition NLsolve refine...      1    9.75s   33.8%   1.23GiB   10.2%
│    Build Perturbations                      1   7.06ms    0.0%    589KiB    0.0%
│    Make DiffEq Problem                      1    110μs    0.0%   35.2KiB    0.0%
│  ───────────────────────────────────────────────────────────────────────────────
│ 
└ @ PowerSimulationsDynamics /Users/rithwikmylavarapu/.julia/packages/PowerSimulationsDynamics/MfUsx/src/base/simulation.jl:436
┌ Warning: 2023-01-03T00:19:50.846 [5069:1]: No Infinite Bus found. Confirm stability directly checking eigenvalues.
│ If all eigenvalues are on the left-half plane and only one eigenvalue is zero, the system is small signal stable.
└ @ PowerSimulationsDynamics /Users/rithwikmylavarapu/.julia/packages/PowerSimulationsDynamics/MfUsx/src/base/small_signal.jl:111
┌ Info: 2023-01-03T00:21:36.423 [5069:1]: 
│  ───────────────────────────────────────────────────────────────────────────────
│                                                      Time          Allocations  
│                                                ───────────────   ───────────────
│                 Total measured:                     28.6s            12.1GiB    
│ 
│  Section                               ncalls     time    %tot     alloc    %tot
│  ───────────────────────────────────────────────────────────────────────────────
│  Build Simulation                           1    28.6s  100.0%   12.1GiB  100.0%
│    Line Transform to Dynamic                1   4.02μs    0.0%      240B    0.0%
│    Build Simulation Inputs                  1    107ms    0.4%   42.3MiB    0.3%
│      Wrap Branches                          1   2.96ms    0.0%   1.15MiB    0.0%
│      Wrap Dynamic Injectors                 1   11.1ms    0.0%   5.15MiB    0.0%
│      Calculate MM, DAE_vector, Tota...      1   59.9ms    0.2%   7.48MiB    0.1%
│      Wrap Static Injectors                  1    125μs    0.0%   36.4KiB    0.0%
│    Pre-initialization                       1    179ms    0.6%   54.3MiB    0.4%
│      Power Flow solution                    1   36.0ms    0.1%   32.8MiB    0.3%
│      Initialize Static Injectors            1   10.1μs    0.0%   3.89KiB    0.0%
│      Initialize Dynamic Injectors           1    141ms    0.5%   21.0MiB    0.2%
│      Initialize Dynamic Branches            1   1.33ms    0.0%    529KiB    0.0%
│    Calculate Jacobian                       1    18.6s   65.0%   10.7GiB   89.0%
│    Make Model Function                      1   67.5μs    0.0%   45.1KiB    0.0%
│    Initial Condition NLsolve refine...      1    9.70s   34.0%   1.23GiB   10.2%
│    Build Perturbations                      1   6.93ms    0.0%    589KiB    0.0%
│    Make DiffEq Problem                      1    118μs    0.0%   35.2KiB    0.0%
│  ───────────────────────────────────────────────────────────────────────────────
│ 
└ @ PowerSimulationsDynamics /Users/rithwikmylavarapu/.julia/packages/PowerSimulationsDynamics/MfUsx/src/base/simulation.jl:436
┌ Warning: 2023-01-03T00:21:46.662 [5069:1]: No Infinite Bus found. Confirm stability directly checking eigenvalues.
│ If all eigenvalues are on the left-half plane and only one eigenvalue is zero, the system is small signal stable.
└ @ PowerSimulationsDynamics /Users/rithwikmylavarapu/.julia/packages/PowerSimulationsDynamics/MfUsx/src/base/small_signal.jl:111
┌ Info: 2023-01-03T00:23:42.071 [5069:1]: 
│  ───────────────────────────────────────────────────────────────────────────────
│                                                      Time          Allocations  
│                                                ───────────────   ───────────────
│                 Total measured:                     30.3s            12.1GiB    
│ 
│  Section                               ncalls     time    %tot     alloc    %tot
│  ───────────────────────────────────────────────────────────────────────────────
│  Build Simulation                           1    30.3s  100.0%   12.1GiB  100.0%
│    Line Transform to Dynamic                1   7.88μs    0.0%      240B    0.0%
│    Build Simulation Inputs                  1    144ms    0.5%   42.3MiB    0.3%
│      Wrap Branches                          1   22.0ms    0.1%   1.14MiB    0.0%
│      Wrap Dynamic Injectors                 1   11.8ms    0.0%   5.15MiB    0.0%
│      Calculate MM, DAE_vector, Tota...      1   68.2ms    0.2%   7.48MiB    0.1%
│      Wrap Static Injectors                  1    296μs    0.0%   36.4KiB    0.0%
│    Pre-initialization                       1    223ms    0.7%   54.3MiB    0.4%
│      Power Flow solution                    1   41.0ms    0.1%   32.8MiB    0.3%
│      Initialize Static Injectors            1   10.2μs    0.0%   3.89KiB    0.0%
│      Initialize Dynamic Injectors           1    180ms    0.6%   21.0MiB    0.2%
│      Initialize Dynamic Branches            1   1.87ms    0.0%    530KiB    0.0%
│    Calculate Jacobian                       1    19.8s   65.2%   10.7GiB   89.0%
│    Make Model Function                      1   70.3μs    0.0%   45.1KiB    0.0%
│    Initial Condition NLsolve refine...      1    10.2s   33.5%   1.23GiB   10.2%
│    Build Perturbations                      1   7.44ms    0.0%    589KiB    0.0%
│    Make DiffEq Problem                      1    117μs    0.0%   35.2KiB    0.0%
│  ───────────────────────────────────────────────────────────────────────────────
│ 
└ @ PowerSimulationsDynamics /Users/rithwikmylavarapu/.julia/packages/PowerSimulationsDynamics/MfUsx/src/base/simulation.jl:436
┌ Warning: 2023-01-03T00:23:52.347 [5069:1]: No Infinite Bus found. Confirm stability directly checking eigenvalues.
│ If all eigenvalues are on the left-half plane and only one eigenvalue is zero, the system is small signal stable.
└ @ PowerSimulationsDynamics /Users/rithwikmylavarapu/.julia/packages/PowerSimulationsDynamics/MfUsx/src/base/small_signal.jl:111
┌ Info: 2023-01-03T00:25:42.433 [5069:1]: 
│  ───────────────────────────────────────────────────────────────────────────────
│                                                      Time          Allocations  
│                                                ───────────────   ───────────────
│                 Total measured:                     31.2s            12.1GiB    
│ 
│  Section                               ncalls     time    %tot     alloc    %tot
│  ───────────────────────────────────────────────────────────────────────────────
│  Build Simulation                           1    31.2s  100.0%   12.1GiB  100.0%
│    Line Transform to Dynamic                1   4.43μs    0.0%      240B    0.0%
│    Build Simulation Inputs                  1    106ms    0.3%   42.3MiB    0.3%
│      Wrap Branches                          1   2.96ms    0.0%   1.14MiB    0.0%
│      Wrap Dynamic Injectors                 1   11.1ms    0.0%   5.15MiB    0.0%
│      Calculate MM, DAE_vector, Tota...      1   59.4ms    0.2%   7.48MiB    0.1%
│      Wrap Static Injectors                  1    171μs    0.0%   36.4KiB    0.0%
│    Pre-initialization                       1    190ms    0.6%   54.3MiB    0.4%
│      Power Flow solution                    1   36.9ms    0.1%   32.8MiB    0.3%
│      Initialize Static Injectors            1   10.4μs    0.0%   3.83KiB    0.0%
│      Initialize Dynamic Injectors           1    151ms    0.5%   21.0MiB    0.2%
│      Initialize Dynamic Branches            1   1.37ms    0.0%    529KiB    0.0%
│    Calculate Jacobian                       1    20.0s   64.1%   10.7GiB   89.0%
│    Make Model Function                      1   74.3μs    0.0%   45.1KiB    0.0%
│    Initial Condition NLsolve refine...      1    10.9s   34.9%   1.23GiB   10.2%
│    Build Perturbations                      1   7.39ms    0.0%    589KiB    0.0%
│    Make DiffEq Problem                      1    113μs    0.0%   35.2KiB    0.0%
│  ───────────────────────────────────────────────────────────────────────────────
│ 
└ @ PowerSimulationsDynamics /Users/rithwikmylavarapu/.julia/packages/PowerSimulationsDynamics/MfUsx/src/base/simulation.jl:436
┌ Warning: 2023-01-03T00:25:52.042 [5069:1]: No Infinite Bus found. Confirm stability directly checking eigenvalues.
│ If all eigenvalues are on the left-half plane and only one eigenvalue is zero, the system is small signal stable.
└ @ PowerSimulationsDynamics /Users/rithwikmylavarapu/.julia/packages/PowerSimulationsDynamics/MfUsx/src/base/small_signal.jl:111
┌ Info: 2023-01-03T00:27:29.105 [5069:1]: 
│  ───────────────────────────────────────────────────────────────────────────────
│                                                      Time          Allocations  
│                                                ───────────────   ───────────────
│                 Total measured:                     28.9s            12.1GiB    
│ 
│  Section                               ncalls     time    %tot     alloc    %tot
│  ───────────────────────────────────────────────────────────────────────────────
│  Build Simulation                           1    28.9s  100.0%   12.1GiB  100.0%
│    Line Transform to Dynamic                1   4.21μs    0.0%      240B    0.0%
│    Build Simulation Inputs                  1    109ms    0.4%   42.3MiB    0.3%
│      Wrap Branches                          1   2.95ms    0.0%   1.14MiB    0.0%
│      Wrap Dynamic Injectors                 1   11.0ms    0.0%   5.15MiB    0.0%
│      Calculate MM, DAE_vector, Tota...      1   59.1ms    0.2%   7.48MiB    0.1%
│      Wrap Static Injectors                  1    233μs    0.0%   36.4KiB    0.0%
│    Pre-initialization                       1    187ms    0.6%   54.3MiB    0.4%
│      Power Flow solution                    1   38.0ms    0.1%   32.8MiB    0.3%
│      Initialize Static Injectors            1   10.6μs    0.0%   3.83KiB    0.0%
│      Initialize Dynamic Injectors           1    148ms    0.5%   21.0MiB    0.2%
│      Initialize Dynamic Branches            1   1.41ms    0.0%    529KiB    0.0%
│    Calculate Jacobian                       1    18.9s   65.5%   10.7GiB   89.0%
│    Make Model Function                      1   63.2μs    0.0%   45.1KiB    0.0%
│    Initial Condition NLsolve refine...      1    9.67s   33.5%   1.23GiB   10.2%
│    Build Perturbations                      1   6.96ms    0.0%    589KiB    0.0%
│    Make DiffEq Problem                      1    111μs    0.0%   35.2KiB    0.0%
│  ───────────────────────────────────────────────────────────────────────────────
│ 
└ @ PowerSimulationsDynamics /Users/rithwikmylavarapu/.julia/packages/PowerSimulationsDynamics/MfUsx/src/base/simulation.jl:436
┌ Warning: 2023-01-03T00:27:39.118 [5069:1]: No Infinite Bus found. Confirm stability directly checking eigenvalues.
│ If all eigenvalues are on the left-half plane and only one eigenvalue is zero, the system is small signal stable.
└ @ PowerSimulationsDynamics /Users/rithwikmylavarapu/.julia/packages/PowerSimulationsDynamics/MfUsx/src/base/small_signal.jl:111
┌ Info: 2023-01-03T00:29:40.907 [5069:1]: 
│  ───────────────────────────────────────────────────────────────────────────────
│                                                      Time          Allocations  
│                                                ───────────────   ───────────────
│                 Total measured:                     30.3s            12.1GiB    
│ 
│  Section                               ncalls     time    %tot     alloc    %tot
│  ───────────────────────────────────────────────────────────────────────────────
│  Build Simulation                           1    30.3s  100.0%   12.1GiB  100.0%
│    Line Transform to Dynamic                1   11.0μs    0.0%      240B    0.0%
│    Build Simulation Inputs                  1    172ms    0.6%   42.3MiB    0.3%
│      Wrap Branches                          1   4.47ms    0.0%   1.14MiB    0.0%
│      Wrap Dynamic Injectors                 1   17.5ms    0.1%   5.15MiB    0.0%
│      Calculate MM, DAE_vector, Tota...      1   91.4ms    0.3%   7.48MiB    0.1%
│      Wrap Static Injectors                  1    184μs    0.0%   36.4KiB    0.0%
│    Pre-initialization                       1    287ms    0.9%   54.3MiB    0.4%
│      Power Flow solution                    1   51.2ms    0.2%   32.8MiB    0.3%
│      Initialize Static Injectors            1   18.1μs    0.0%   3.83KiB    0.0%
│      Initialize Dynamic Injectors           1    233ms    0.8%   21.0MiB    0.2%
│      Initialize Dynamic Branches            1   2.07ms    0.0%    529KiB    0.0%
│    Calculate Jacobian                       1    20.0s   66.1%   10.7GiB   89.0%
│    Make Model Function                      1   69.5μs    0.0%   45.1KiB    0.0%
│    Initial Condition NLsolve refine...      1    9.80s   32.4%   1.23GiB   10.2%
│    Build Perturbations                      1   7.11ms    0.0%    589KiB    0.0%
│    Make DiffEq Problem                      1    116μs    0.0%   35.2KiB    0.0%
│  ───────────────────────────────────────────────────────────────────────────────
│ 
└ @ PowerSimulationsDynamics /Users/rithwikmylavarapu/.julia/packages/PowerSimulationsDynamics/MfUsx/src/base/simulation.jl:436
┌ Warning: 2023-01-03T00:29:50.268 [5069:1]: No Infinite Bus found. Confirm stability directly checking eigenvalues.
│ If all eigenvalues are on the left-half plane and only one eigenvalue is zero, the system is small signal stable.
└ @ PowerSimulationsDynamics /Users/rithwikmylavarapu/.julia/packages/PowerSimulationsDynamics/MfUsx/src/base/small_signal.jl:111
┌ Info: 2023-01-03T00:31:57.566 [5069:1]: 
│  ───────────────────────────────────────────────────────────────────────────────
│                                                      Time          Allocations  
│                                                ───────────────   ───────────────
│                 Total measured:                     28.2s            12.1GiB    
│ 
│  Section                               ncalls     time    %tot     alloc    %tot
│  ───────────────────────────────────────────────────────────────────────────────
│  Build Simulation                           1    28.2s  100.0%   12.1GiB  100.0%
│    Line Transform to Dynamic                1   4.48μs    0.0%      240B    0.0%
│    Build Simulation Inputs                  1    108ms    0.4%   42.3MiB    0.3%
│      Wrap Branches                          1   2.97ms    0.0%   1.14MiB    0.0%
│      Wrap Dynamic Injectors                 1   11.3ms    0.0%   5.15MiB    0.0%
│      Calculate MM, DAE_vector, Tota...      1   58.9ms    0.2%   7.48MiB    0.1%
│      Wrap Static Injectors                  1    128μs    0.0%   36.4KiB    0.0%
│    Pre-initialization                       1    179ms    0.6%   54.3MiB    0.4%
│      Power Flow solution                    1   36.7ms    0.1%   32.8MiB    0.3%
│      Initialize Static Injectors            1   11.0μs    0.0%   3.83KiB    0.0%
│      Initialize Dynamic Injectors           1    140ms    0.5%   21.0MiB    0.2%
│      Initialize Dynamic Branches            1   1.31ms    0.0%    529KiB    0.0%
│    Calculate Jacobian                       1    18.5s   65.5%   10.7GiB   89.0%
│    Make Model Function                      1   65.3μs    0.0%   45.1KiB    0.0%
│    Initial Condition NLsolve refine...      1    9.45s   33.5%   1.23GiB   10.2%
│    Build Perturbations                      1   7.06ms    0.0%    589KiB    0.0%
│    Make DiffEq Problem                      1    110μs    0.0%   35.2KiB    0.0%
│  ───────────────────────────────────────────────────────────────────────────────
│ 
└ @ PowerSimulationsDynamics /Users/rithwikmylavarapu/.julia/packages/PowerSimulationsDynamics/MfUsx/src/base/simulation.jl:436
┌ Warning: 2023-01-03T00:32:06.993 [5069:1]: No Infinite Bus found. Confirm stability directly checking eigenvalues.
│ If all eigenvalues are on the left-half plane and only one eigenvalue is zero, the system is small signal stable.
└ @ PowerSimulationsDynamics /Users/rithwikmylavarapu/.julia/packages/PowerSimulationsDynamics/MfUsx/src/base/small_signal.jl:111
┌ Info: 2023-01-03T00:33:52.702 [5069:1]: 
│  ───────────────────────────────────────────────────────────────────────────────
│                                                      Time          Allocations  
│                                                ───────────────   ───────────────
│                 Total measured:                     25.8s            12.1GiB    
│ 
│  Section                               ncalls     time    %tot     alloc    %tot
│  ───────────────────────────────────────────────────────────────────────────────
│  Build Simulation                           1    25.8s  100.0%   12.1GiB  100.0%
│    Line Transform to Dynamic                1   4.54μs    0.0%      240B    0.0%
│    Build Simulation Inputs                  1    106ms    0.4%   42.3MiB    0.3%
│      Wrap Branches                          1   2.94ms    0.0%   1.15MiB    0.0%
│      Wrap Dynamic Injectors                 1   11.1ms    0.0%   5.15MiB    0.0%
│      Calculate MM, DAE_vector, Tota...      1   58.7ms    0.2%   7.47MiB    0.1%
│      Wrap Static Injectors                  1    132μs    0.0%   36.4KiB    0.0%
│    Pre-initialization                       1    181ms    0.7%   54.3MiB    0.4%
│      Power Flow solution                    1   36.9ms    0.1%   32.8MiB    0.3%
│      Initialize Static Injectors            1   10.3μs    0.0%   3.89KiB    0.0%
│      Initialize Dynamic Injectors           1    142ms    0.6%   21.0MiB    0.2%
│      Initialize Dynamic Branches            1   1.34ms    0.0%    529KiB    0.0%
│    Calculate Jacobian                       1    18.6s   72.1%   10.7GiB   89.0%
│    Make Model Function                      1   66.5μs    0.0%   45.1KiB    0.0%
│    Initial Condition NLsolve refine...      1    6.91s   26.8%   1.23GiB   10.2%
│    Build Perturbations                      1   5.38ms    0.0%    589KiB    0.0%
│    Make DiffEq Problem                      1   90.4μs    0.0%   35.2KiB    0.0%
│  ───────────────────────────────────────────────────────────────────────────────
│ 
└ @ PowerSimulationsDynamics /Users/rithwikmylavarapu/.julia/packages/PowerSimulationsDynamics/MfUsx/src/base/simulation.jl:436
┌ Warning: 2023-01-03T00:34:01.064 [5069:1]: No Infinite Bus found. Confirm stability directly checking eigenvalues.
│ If all eigenvalues are on the left-half plane and only one eigenvalue is zero, the system is small signal stable.
└ @ PowerSimulationsDynamics /Users/rithwikmylavarapu/.julia/packages/PowerSimulationsDynamics/MfUsx/src/base/small_signal.jl:111
┌ Warning: 2023-01-03T17:59:50.660 [5069:1]: Assignment to `surr` in soft scope is ambiguous because a global variable by the same name exists: `surr` will be treated as a new local. Disambiguate by using `local surr` to suppress this warning or `global surr` to assign to the existing global variable.
└ @ nothing /Users/rithwikmylavarapu/Documents/UCB/PowerDynanimcsCTESNActiveLearning/src/trainCTESN_gradient.jl:75
┌ Warning: 2023-01-03T17:59:50.727 [5069:1]: Assignment to `predict` in soft scope is ambiguous because a global variable by the same name exists: `predict` will be treated as a new local. Disambiguate by using `local predict` to suppress this warning or `global predict` to assign to the existing global variable.
└ @ nothing /Users/rithwikmylavarapu/Documents/UCB/PowerDynanimcsCTESNActiveLearning/src/trainCTESN_gradient.jl:78
